
---------- Begin Simulation Statistics ----------
final_tick                                29845716500                       # Number of ticks from beginning of simulation (restored from checkpoints and never reset)
host_inst_rate                                 179529                       # Simulator instruction rate (inst/s)
host_mem_usage                                 848840                       # Number of bytes of host memory used
host_op_rate                                   202266                       # Simulator op (including micro ops) rate (op/s)
host_seconds                                   557.01                       # Real time elapsed on the host
host_tick_rate                               53581816                       # Simulator tick rate (ticks/s)
sim_freq                                 1000000000000                       # Frequency of simulated ticks
sim_insts                                   100000007                       # Number of instructions simulated
sim_ops                                     112664819                       # Number of ops (including micro ops) simulated
sim_seconds                                  0.029846                       # Number of seconds simulated
sim_ticks                                 29845716500                       # Number of ticks simulated
system.cpu.branchPred.BTBCorrect                    0                       # Number of correct BTB predictions (this stat may not work properly.
system.cpu.branchPred.BTBHitPct             99.986721                       # BTB Hit Percentage
system.cpu.branchPred.BTBHits                 9788464                       # Number of BTB hits
system.cpu.branchPred.BTBLookups              9789764                       # Number of BTB lookups
system.cpu.branchPred.RASInCorrect                  6                       # Number of incorrect RAS predictions.
system.cpu.branchPred.condIncorrect             80126                       # Number of conditional branches incorrect
system.cpu.branchPred.condPredicted          19047656                       # Number of conditional branches predicted
system.cpu.branchPred.indirectHits             294299                       # Number of indirect target hits.
system.cpu.branchPred.indirectLookups          294656                       # Number of indirect predictor lookups.
system.cpu.branchPred.indirectMisses              357                       # Number of indirect misses.
system.cpu.branchPred.lookups                23555447                       # Number of BP lookups
system.cpu.branchPred.usedRAS                 1066512                       # Number of times the RAS was used to get a target.
system.cpu.branchPredindirectMispredicted           87                       # Number of mispredicted indirect branches.
system.cpu.cc_regfile_reads                  48760413                       # number of cc regfile reads
system.cpu.cc_regfile_writes                 46389345                       # number of cc regfile writes
system.cpu.commit.amos                              0                       # Number of atomic instructions committed
system.cpu.commit.branchMispredicts             79776                       # The number of times a branch was mispredicted
system.cpu.commit.branches                   22777142                       # Number of branches committed
system.cpu.commit.bw_lim_events               6443874                       # number cycles where commit BW limit reached
system.cpu.commit.commitNonSpecStalls          105612                       # The number of times commit has been forced to stall to communicate backwards
system.cpu.commit.commitSquashedInsts         2528377                       # The number of squashed insts skipped by commit
system.cpu.commit.committedInsts            100052767                       # Number of instructions committed
system.cpu.commit.committedOps              112717579                       # Number of ops (including micro ops) committed
system.cpu.commit.committed_per_cycle::samples     59284994                       # Number of insts commited each cycle
system.cpu.commit.committed_per_cycle::mean     1.901283                       # Number of insts commited each cycle
system.cpu.commit.committed_per_cycle::stdev     2.700757                       # Number of insts commited each cycle
system.cpu.commit.committed_per_cycle::underflows            0      0.00%      0.00% # Number of insts commited each cycle
system.cpu.commit.committed_per_cycle::0     28319466     47.77%     47.77% # Number of insts commited each cycle
system.cpu.commit.committed_per_cycle::1     10406766     17.55%     65.32% # Number of insts commited each cycle
system.cpu.commit.committed_per_cycle::2      5410331      9.13%     74.45% # Number of insts commited each cycle
system.cpu.commit.committed_per_cycle::3      2769187      4.67%     79.12% # Number of insts commited each cycle
system.cpu.commit.committed_per_cycle::4      2334968      3.94%     83.06% # Number of insts commited each cycle
system.cpu.commit.committed_per_cycle::5       712075      1.20%     84.26% # Number of insts commited each cycle
system.cpu.commit.committed_per_cycle::6      1486938      2.51%     86.77% # Number of insts commited each cycle
system.cpu.commit.committed_per_cycle::7      1401389      2.36%     89.13% # Number of insts commited each cycle
system.cpu.commit.committed_per_cycle::8      6443874     10.87%    100.00% # Number of insts commited each cycle
system.cpu.commit.committed_per_cycle::overflows            0      0.00%    100.00% # Number of insts commited each cycle
system.cpu.commit.committed_per_cycle::min_value            0                       # Number of insts commited each cycle
system.cpu.commit.committed_per_cycle::max_value            8                       # Number of insts commited each cycle
system.cpu.commit.committed_per_cycle::total     59284994                       # Number of insts commited each cycle
system.cpu.commit.fp_insts                          0                       # Number of committed floating point instructions.
system.cpu.commit.function_calls              1032761                       # Number of function calls committed.
system.cpu.commit.int_insts                  97428084                       # Number of committed integer instructions.
system.cpu.commit.loads                      17441847                       # Number of loads committed
system.cpu.commit.membars                      105508                       # Number of memory barriers committed
system.cpu.commit.op_class_0::No_OpClass        75022      0.07%      0.07% # Class of committed instruction
system.cpu.commit.op_class_0::IntAlu         77293646     68.57%     68.64% # Class of committed instruction
system.cpu.commit.op_class_0::IntMult          608272      0.54%     69.18% # Class of committed instruction
system.cpu.commit.op_class_0::IntDiv                3      0.00%     69.18% # Class of committed instruction
system.cpu.commit.op_class_0::FloatAdd              0      0.00%     69.18% # Class of committed instruction
system.cpu.commit.op_class_0::FloatCmp              0      0.00%     69.18% # Class of committed instruction
system.cpu.commit.op_class_0::FloatCvt              0      0.00%     69.18% # Class of committed instruction
system.cpu.commit.op_class_0::FloatMult             0      0.00%     69.18% # Class of committed instruction
system.cpu.commit.op_class_0::FloatMultAcc            0      0.00%     69.18% # Class of committed instruction
system.cpu.commit.op_class_0::FloatDiv              0      0.00%     69.18% # Class of committed instruction
system.cpu.commit.op_class_0::FloatMisc             0      0.00%     69.18% # Class of committed instruction
system.cpu.commit.op_class_0::FloatSqrt             0      0.00%     69.18% # Class of committed instruction
system.cpu.commit.op_class_0::SimdAdd          173041      0.15%     69.33% # Class of committed instruction
system.cpu.commit.op_class_0::SimdAddAcc            0      0.00%     69.33% # Class of committed instruction
system.cpu.commit.op_class_0::SimdAlu          173039      0.15%     69.49% # Class of committed instruction
system.cpu.commit.op_class_0::SimdCmp          150052      0.13%     69.62% # Class of committed instruction
system.cpu.commit.op_class_0::SimdCvt               0      0.00%     69.62% # Class of committed instruction
system.cpu.commit.op_class_0::SimdMisc         203639      0.18%     69.80% # Class of committed instruction
system.cpu.commit.op_class_0::SimdMult              0      0.00%     69.80% # Class of committed instruction
system.cpu.commit.op_class_0::SimdMultAcc            0      0.00%     69.80% # Class of committed instruction
system.cpu.commit.op_class_0::SimdShift             0      0.00%     69.80% # Class of committed instruction
system.cpu.commit.op_class_0::SimdShiftAcc            0      0.00%     69.80% # Class of committed instruction
system.cpu.commit.op_class_0::SimdDiv               0      0.00%     69.80% # Class of committed instruction
system.cpu.commit.op_class_0::SimdSqrt              0      0.00%     69.80% # Class of committed instruction
system.cpu.commit.op_class_0::SimdFloatAdd            0      0.00%     69.80% # Class of committed instruction
system.cpu.commit.op_class_0::SimdFloatAlu            0      0.00%     69.80% # Class of committed instruction
system.cpu.commit.op_class_0::SimdFloatCmp            0      0.00%     69.80% # Class of committed instruction
system.cpu.commit.op_class_0::SimdFloatCvt            0      0.00%     69.80% # Class of committed instruction
system.cpu.commit.op_class_0::SimdFloatDiv            0      0.00%     69.80% # Class of committed instruction
system.cpu.commit.op_class_0::SimdFloatMisc            0      0.00%     69.80% # Class of committed instruction
system.cpu.commit.op_class_0::SimdFloatMult            0      0.00%     69.80% # Class of committed instruction
system.cpu.commit.op_class_0::SimdFloatMultAcc            0      0.00%     69.80% # Class of committed instruction
system.cpu.commit.op_class_0::SimdFloatSqrt            0      0.00%     69.80% # Class of committed instruction
system.cpu.commit.op_class_0::SimdReduceAdd            0      0.00%     69.80% # Class of committed instruction
system.cpu.commit.op_class_0::SimdReduceAlu            0      0.00%     69.80% # Class of committed instruction
system.cpu.commit.op_class_0::SimdReduceCmp            0      0.00%     69.80% # Class of committed instruction
system.cpu.commit.op_class_0::SimdFloatReduceAdd            0      0.00%     69.80% # Class of committed instruction
system.cpu.commit.op_class_0::SimdFloatReduceCmp            0      0.00%     69.80% # Class of committed instruction
system.cpu.commit.op_class_0::SimdAes               0      0.00%     69.80% # Class of committed instruction
system.cpu.commit.op_class_0::SimdAesMix            0      0.00%     69.80% # Class of committed instruction
system.cpu.commit.op_class_0::SimdSha1Hash            0      0.00%     69.80% # Class of committed instruction
system.cpu.commit.op_class_0::SimdSha1Hash2            0      0.00%     69.80% # Class of committed instruction
system.cpu.commit.op_class_0::SimdSha256Hash            0      0.00%     69.80% # Class of committed instruction
system.cpu.commit.op_class_0::SimdSha256Hash2            0      0.00%     69.80% # Class of committed instruction
system.cpu.commit.op_class_0::SimdShaSigma2            0      0.00%     69.80% # Class of committed instruction
system.cpu.commit.op_class_0::SimdShaSigma3            0      0.00%     69.80% # Class of committed instruction
system.cpu.commit.op_class_0::SimdPredAlu            0      0.00%     69.80% # Class of committed instruction
system.cpu.commit.op_class_0::MemRead        17441847     15.47%     85.27% # Class of committed instruction
system.cpu.commit.op_class_0::MemWrite       16599018     14.73%    100.00% # Class of committed instruction
system.cpu.commit.op_class_0::FloatMemRead            0      0.00%    100.00% # Class of committed instruction
system.cpu.commit.op_class_0::FloatMemWrite            0      0.00%    100.00% # Class of committed instruction
system.cpu.commit.op_class_0::IprAccess             0      0.00%    100.00% # Class of committed instruction
system.cpu.commit.op_class_0::InstPrefetch            0      0.00%    100.00% # Class of committed instruction
system.cpu.commit.op_class_0::total         112717579                       # Class of committed instruction
system.cpu.commit.refs                       34040865                       # Number of memory references committed
system.cpu.commit.swp_count                         0                       # Number of s/w prefetches committed
system.cpu.commit.vec_insts                   1768733                       # Number of committed Vector instructions.
system.cpu.committedInsts                   100000007                       # Number of Instructions Simulated
system.cpu.committedOps                     112664819                       # Number of Ops (including micro ops) Simulated
system.cpu.cpi                               0.596914                       # CPI: Cycles Per Instruction
system.cpu.cpi_total                         0.596914                       # CPI: Total CPI of All Threads
system.cpu.decode.BlockedCycles              23798295                       # Number of cycles decode is blocked
system.cpu.decode.BranchMispred                   353                       # Number of times decode detected a branch misprediction
system.cpu.decode.BranchResolved              9774822                       # Number of times decode resolved a branch
system.cpu.decode.DecodedInsts              115800846                       # Number of instructions handled by decode
system.cpu.decode.IdleCycles                 13943944                       # Number of cycles decode is idle
system.cpu.decode.RunCycles                  21108620                       # Number of cycles decode is running
system.cpu.decode.SquashCycles                  83469                       # Number of cycles decode is squashing
system.cpu.decode.SquashedInsts                  1005                       # Number of squashed instructions handled by decode
system.cpu.decode.UnblockCycles                711760                       # Number of cycles decode is unblocking
system.cpu.dtb.accesses                             0                       # DTB accesses
system.cpu.dtb.align_faults                         0                       # Number of TLB faults due to alignment restrictions
system.cpu.dtb.domain_faults                        0                       # Number of TLB faults due to domain restrictions
system.cpu.dtb.flush_entries                        0                       # Number of entries that have been flushed from TLB
system.cpu.dtb.flush_tlb                            0                       # Number of times complete TLB was flushed
system.cpu.dtb.flush_tlb_asid                       0                       # Number of times TLB was flushed by ASID
system.cpu.dtb.flush_tlb_mva                        0                       # Number of times TLB was flushed by MVA
system.cpu.dtb.flush_tlb_mva_asid                   0                       # Number of times TLB was flushed by MVA & ASID
system.cpu.dtb.hits                                 0                       # DTB hits
system.cpu.dtb.inst_accesses                        0                       # ITB inst accesses
system.cpu.dtb.inst_hits                            0                       # ITB inst hits
system.cpu.dtb.inst_misses                          0                       # ITB inst misses
system.cpu.dtb.misses                               0                       # DTB misses
system.cpu.dtb.perms_faults                         0                       # Number of TLB faults due to permissions restrictions
system.cpu.dtb.prefetch_faults                      0                       # Number of TLB faults due to prefetch
system.cpu.dtb.read_accesses                        0                       # DTB read accesses
system.cpu.dtb.read_hits                            0                       # DTB read hits
system.cpu.dtb.read_misses                          0                       # DTB read misses
system.cpu.dtb.stage2_mmu.stage2_tlb.accesses            0                       # DTB accesses
system.cpu.dtb.stage2_mmu.stage2_tlb.align_faults            0                       # Number of TLB faults due to alignment restrictions
system.cpu.dtb.stage2_mmu.stage2_tlb.domain_faults            0                       # Number of TLB faults due to domain restrictions
system.cpu.dtb.stage2_mmu.stage2_tlb.flush_entries            0                       # Number of entries that have been flushed from TLB
system.cpu.dtb.stage2_mmu.stage2_tlb.flush_tlb            0                       # Number of times complete TLB was flushed
system.cpu.dtb.stage2_mmu.stage2_tlb.flush_tlb_asid            0                       # Number of times TLB was flushed by ASID
system.cpu.dtb.stage2_mmu.stage2_tlb.flush_tlb_mva            0                       # Number of times TLB was flushed by MVA
system.cpu.dtb.stage2_mmu.stage2_tlb.flush_tlb_mva_asid            0                       # Number of times TLB was flushed by MVA & ASID
system.cpu.dtb.stage2_mmu.stage2_tlb.hits            0                       # DTB hits
system.cpu.dtb.stage2_mmu.stage2_tlb.inst_accesses            0                       # ITB inst accesses
system.cpu.dtb.stage2_mmu.stage2_tlb.inst_hits            0                       # ITB inst hits
system.cpu.dtb.stage2_mmu.stage2_tlb.inst_misses            0                       # ITB inst misses
system.cpu.dtb.stage2_mmu.stage2_tlb.misses            0                       # DTB misses
system.cpu.dtb.stage2_mmu.stage2_tlb.perms_faults            0                       # Number of TLB faults due to permissions restrictions
system.cpu.dtb.stage2_mmu.stage2_tlb.prefetch_faults            0                       # Number of TLB faults due to prefetch
system.cpu.dtb.stage2_mmu.stage2_tlb.read_accesses            0                       # DTB read accesses
system.cpu.dtb.stage2_mmu.stage2_tlb.read_hits            0                       # DTB read hits
system.cpu.dtb.stage2_mmu.stage2_tlb.read_misses            0                       # DTB read misses
system.cpu.dtb.stage2_mmu.stage2_tlb.walker.walkRequestOrigin_Requested::Data            0                       # Table walker requests started/completed, data/inst
system.cpu.dtb.stage2_mmu.stage2_tlb.walker.walkRequestOrigin_Requested::Inst            0                       # Table walker requests started/completed, data/inst
system.cpu.dtb.stage2_mmu.stage2_tlb.walker.walkRequestOrigin_Requested::total            0                       # Table walker requests started/completed, data/inst
system.cpu.dtb.stage2_mmu.stage2_tlb.walker.walkRequestOrigin_Completed::Data            0                       # Table walker requests started/completed, data/inst
system.cpu.dtb.stage2_mmu.stage2_tlb.walker.walkRequestOrigin_Completed::Inst            0                       # Table walker requests started/completed, data/inst
system.cpu.dtb.stage2_mmu.stage2_tlb.walker.walkRequestOrigin_Completed::total            0                       # Table walker requests started/completed, data/inst
system.cpu.dtb.stage2_mmu.stage2_tlb.walker.walkRequestOrigin::total            0                       # Table walker requests started/completed, data/inst
system.cpu.dtb.stage2_mmu.stage2_tlb.walker.walks            0                       # Table walker walks requested
system.cpu.dtb.stage2_mmu.stage2_tlb.write_accesses            0                       # DTB write accesses
system.cpu.dtb.stage2_mmu.stage2_tlb.write_hits            0                       # DTB write hits
system.cpu.dtb.stage2_mmu.stage2_tlb.write_misses            0                       # DTB write misses
system.cpu.dtb.walker.walkRequestOrigin_Requested::Data            0                       # Table walker requests started/completed, data/inst
system.cpu.dtb.walker.walkRequestOrigin_Requested::Inst            0                       # Table walker requests started/completed, data/inst
system.cpu.dtb.walker.walkRequestOrigin_Requested::total            0                       # Table walker requests started/completed, data/inst
system.cpu.dtb.walker.walkRequestOrigin_Completed::Data            0                       # Table walker requests started/completed, data/inst
system.cpu.dtb.walker.walkRequestOrigin_Completed::Inst            0                       # Table walker requests started/completed, data/inst
system.cpu.dtb.walker.walkRequestOrigin_Completed::total            0                       # Table walker requests started/completed, data/inst
system.cpu.dtb.walker.walkRequestOrigin::total            0                       # Table walker requests started/completed, data/inst
system.cpu.dtb.walker.walks                         0                       # Table walker walks requested
system.cpu.dtb.write_accesses                       0                       # DTB write accesses
system.cpu.dtb.write_hits                           0                       # DTB write hits
system.cpu.dtb.write_misses                         0                       # DTB write misses
system.cpu.fetch.Branches                    23555447                       # Number of branches that fetch encountered
system.cpu.fetch.CacheLines                  15638899                       # Number of cache lines fetched
system.cpu.fetch.Cycles                      43870322                       # Number of cycles fetch has run and was not squashing or blocked
system.cpu.fetch.IcacheSquashes                 38610                       # Number of outstanding Icache misses that were squashed
system.cpu.fetch.IcacheWaitRetryStallCycles           29                       # Number of stall cycles due to full MSHR
system.cpu.fetch.Insts                      103072393                       # Number of instructions fetch has processed
system.cpu.fetch.MiscStallCycles                    2                       # Number of cycles fetch has spent waiting on interrupts, or bad addresses, or out of MSHRs
system.cpu.fetch.SquashCycles                  167638                       # Number of cycles fetch has spent squashing
system.cpu.fetch.branchRate                  0.394620                       # Number of branch fetches per cycle
system.cpu.fetch.icacheStallCycles           15691916                       # Number of cycles fetch is stalled on an Icache miss
system.cpu.fetch.predictedBranches           11149275                       # Number of branches that fetch has predicted taken
system.cpu.fetch.rate                        1.726754                       # Number of inst fetches per cycle
system.cpu.fetch.rateDist::samples           59646088                       # Number of instructions fetched each cycle (Total)
system.cpu.fetch.rateDist::mean              1.945991                       # Number of instructions fetched each cycle (Total)
system.cpu.fetch.rateDist::stdev             2.907343                       # Number of instructions fetched each cycle (Total)
system.cpu.fetch.rateDist::underflows               0      0.00%      0.00% # Number of instructions fetched each cycle (Total)
system.cpu.fetch.rateDist::0                 36427926     61.07%     61.07% # Number of instructions fetched each cycle (Total)
system.cpu.fetch.rateDist::1                  2490241      4.18%     65.25% # Number of instructions fetched each cycle (Total)
system.cpu.fetch.rateDist::2                  2099973      3.52%     68.77% # Number of instructions fetched each cycle (Total)
system.cpu.fetch.rateDist::3                  3048961      5.11%     73.88% # Number of instructions fetched each cycle (Total)
system.cpu.fetch.rateDist::4                  3842353      6.44%     80.32% # Number of instructions fetched each cycle (Total)
system.cpu.fetch.rateDist::5                  2192710      3.68%     84.00% # Number of instructions fetched each cycle (Total)
system.cpu.fetch.rateDist::6                   681222      1.14%     85.14% # Number of instructions fetched each cycle (Total)
system.cpu.fetch.rateDist::7                  1088209      1.82%     86.97% # Number of instructions fetched each cycle (Total)
system.cpu.fetch.rateDist::8                  7774493     13.03%    100.00% # Number of instructions fetched each cycle (Total)
system.cpu.fetch.rateDist::overflows                0      0.00%    100.00% # Number of instructions fetched each cycle (Total)
system.cpu.fetch.rateDist::min_value                0                       # Number of instructions fetched each cycle (Total)
system.cpu.fetch.rateDist::max_value                8                       # Number of instructions fetched each cycle (Total)
system.cpu.fetch.rateDist::total             59646088                       # Number of instructions fetched each cycle (Total)
system.cpu.idleCycles                           45346                       # Total number of cycles that the CPU has spent unscheduled due to idling
system.cpu.iew.branchMispredicts               103800                       # Number of branch mispredicts detected at execute
system.cpu.iew.exec_branches                 23188773                       # Number of branches executed
system.cpu.iew.exec_nop                         52791                       # number of nop insts executed
system.cpu.iew.exec_rate                     1.944412                       # Inst execution rate
system.cpu.iew.exec_refs                     36010343                       # number of memory reference insts executed
system.cpu.iew.exec_stores                   16811026                       # Number of stores executed
system.cpu.iew.exec_swp                             0                       # number of swp insts executed
system.cpu.iew.iewBlockCycles                  277906                       # Number of cycles IEW is blocking
system.cpu.iew.iewDispLoadInsts              17742772                       # Number of dispatched load instructions
system.cpu.iew.iewDispNonSpecInsts             105771                       # Number of dispatched non-speculative instructions
system.cpu.iew.iewDispSquashedInsts              1230                       # Number of squashed instructions skipped by dispatch
system.cpu.iew.iewDispStoreInsts             16890799                       # Number of dispatched store instructions
system.cpu.iew.iewDispatchedInsts           115274127                       # Number of instructions dispatched to IQ
system.cpu.iew.iewExecLoadInsts              19199317                       # Number of load instructions executed
system.cpu.iew.iewExecSquashedInsts            173548                       # Number of squashed instructions skipped in execute
system.cpu.iew.iewExecutedInsts             116064726                       # Number of executed instructions
system.cpu.iew.iewIQFullEvents                     12                       # Number of times the IQ has become full, causing a stall
system.cpu.iew.iewIdleCycles                        0                       # Number of cycles IEW is idle
system.cpu.iew.iewLSQFullEvents                347309                       # Number of times the LSQ has become full, causing a stall
system.cpu.iew.iewSquashCycles                  83469                       # Number of cycles IEW is squashing
system.cpu.iew.iewUnblockCycles                346684                       # Number of cycles IEW is unblocking
system.cpu.iew.lsq.thread0.blockedLoads             0                       # Number of blocked loads due to partial load-store forwarding
system.cpu.iew.lsq.thread0.cacheBlocked         54449                       # Number of times an access to memory failed due to the cache being blocked
system.cpu.iew.lsq.thread0.forwLoads          1116555                       # Number of loads that had data forwarded from stores
system.cpu.iew.lsq.thread0.ignoredResponses           28                       # Number of memory responses ignored because the instruction is squashed
system.cpu.iew.lsq.thread0.invAddrLoads             0                       # Number of loads ignored due to an invalid address
system.cpu.iew.lsq.thread0.invAddrSwpfs             0                       # Number of software prefetches ignored due to an invalid address
system.cpu.iew.lsq.thread0.memOrderViolation          707                       # Number of memory ordering violations
system.cpu.iew.lsq.thread0.rescheduledLoads      1334341                       # Number of loads that were rescheduled
system.cpu.iew.lsq.thread0.squashedLoads       300919                       # Number of loads squashed
system.cpu.iew.lsq.thread0.squashedStores       291775                       # Number of stores squashed
system.cpu.iew.memOrderViolationEvents            707                       # Number of memory order violations
system.cpu.iew.predictedNotTakenIncorrect        46781                       # Number of branches that were predicted not taken incorrectly
system.cpu.iew.predictedTakenIncorrect          57019                       # Number of branches that were predicted taken incorrectly
system.cpu.iew.wb_consumers                 112723030                       # num instructions consuming a value
system.cpu.iew.wb_count                     114436397                       # cumulative count of insts written-back
system.cpu.iew.wb_fanout                     0.512067                       # average fanout of values written-back
system.cpu.iew.wb_producers                  57721741                       # num instructions producing a value
system.cpu.iew.wb_rate                       1.917133                       # insts written-back per cycle
system.cpu.iew.wb_sent                      114468257                       # cumulative count of insts sent to commit
system.cpu.int_regfile_reads                130354825                       # number of integer regfile reads
system.cpu.int_regfile_writes                76720496                       # number of integer regfile writes
system.cpu.ipc                               1.675282                       # IPC: Instructions Per Cycle
system.cpu.ipc_total                         1.675282                       # IPC: Total IPC of All Threads
system.cpu.iq.FU_type_0::No_OpClass             76419      0.07%      0.07% # Type of FU issued
system.cpu.iq.FU_type_0::IntAlu              78759831     67.76%     67.82% # Type of FU issued
system.cpu.iq.FU_type_0::IntMult               632216      0.54%     68.37% # Type of FU issued
system.cpu.iq.FU_type_0::IntDiv                     3      0.00%     68.37% # Type of FU issued
system.cpu.iq.FU_type_0::FloatAdd                   0      0.00%     68.37% # Type of FU issued
system.cpu.iq.FU_type_0::FloatCmp                   0      0.00%     68.37% # Type of FU issued
system.cpu.iq.FU_type_0::FloatCvt                   0      0.00%     68.37% # Type of FU issued
system.cpu.iq.FU_type_0::FloatMult                  0      0.00%     68.37% # Type of FU issued
system.cpu.iq.FU_type_0::FloatMultAcc               0      0.00%     68.37% # Type of FU issued
system.cpu.iq.FU_type_0::FloatDiv                   0      0.00%     68.37% # Type of FU issued
system.cpu.iq.FU_type_0::FloatMisc                  0      0.00%     68.37% # Type of FU issued
system.cpu.iq.FU_type_0::FloatSqrt                  0      0.00%     68.37% # Type of FU issued
system.cpu.iq.FU_type_0::SimdAdd               177222      0.15%     68.52% # Type of FU issued
system.cpu.iq.FU_type_0::SimdAddAcc                 0      0.00%     68.52% # Type of FU issued
system.cpu.iq.FU_type_0::SimdAlu               177222      0.15%     68.67% # Type of FU issued
system.cpu.iq.FU_type_0::SimdCmp               152848      0.13%     68.80% # Type of FU issued
system.cpu.iq.FU_type_0::SimdCvt                    0      0.00%     68.80% # Type of FU issued
system.cpu.iq.FU_type_0::SimdMisc              206463      0.18%     68.98% # Type of FU issued
system.cpu.iq.FU_type_0::SimdMult                   0      0.00%     68.98% # Type of FU issued
system.cpu.iq.FU_type_0::SimdMultAcc                0      0.00%     68.98% # Type of FU issued
system.cpu.iq.FU_type_0::SimdShift                  0      0.00%     68.98% # Type of FU issued
system.cpu.iq.FU_type_0::SimdShiftAcc               0      0.00%     68.98% # Type of FU issued
system.cpu.iq.FU_type_0::SimdDiv                    0      0.00%     68.98% # Type of FU issued
system.cpu.iq.FU_type_0::SimdSqrt                   0      0.00%     68.98% # Type of FU issued
system.cpu.iq.FU_type_0::SimdFloatAdd               0      0.00%     68.98% # Type of FU issued
system.cpu.iq.FU_type_0::SimdFloatAlu               0      0.00%     68.98% # Type of FU issued
system.cpu.iq.FU_type_0::SimdFloatCmp               0      0.00%     68.98% # Type of FU issued
system.cpu.iq.FU_type_0::SimdFloatCvt               0      0.00%     68.98% # Type of FU issued
system.cpu.iq.FU_type_0::SimdFloatDiv               0      0.00%     68.98% # Type of FU issued
system.cpu.iq.FU_type_0::SimdFloatMisc              0      0.00%     68.98% # Type of FU issued
system.cpu.iq.FU_type_0::SimdFloatMult              0      0.00%     68.98% # Type of FU issued
system.cpu.iq.FU_type_0::SimdFloatMultAcc            0      0.00%     68.98% # Type of FU issued
system.cpu.iq.FU_type_0::SimdFloatSqrt              0      0.00%     68.98% # Type of FU issued
system.cpu.iq.FU_type_0::SimdReduceAdd              0      0.00%     68.98% # Type of FU issued
system.cpu.iq.FU_type_0::SimdReduceAlu              0      0.00%     68.98% # Type of FU issued
system.cpu.iq.FU_type_0::SimdReduceCmp              0      0.00%     68.98% # Type of FU issued
system.cpu.iq.FU_type_0::SimdFloatReduceAdd            0      0.00%     68.98% # Type of FU issued
system.cpu.iq.FU_type_0::SimdFloatReduceCmp            0      0.00%     68.98% # Type of FU issued
system.cpu.iq.FU_type_0::SimdAes                    0      0.00%     68.98% # Type of FU issued
system.cpu.iq.FU_type_0::SimdAesMix                 0      0.00%     68.98% # Type of FU issued
system.cpu.iq.FU_type_0::SimdSha1Hash               0      0.00%     68.98% # Type of FU issued
system.cpu.iq.FU_type_0::SimdSha1Hash2              0      0.00%     68.98% # Type of FU issued
system.cpu.iq.FU_type_0::SimdSha256Hash             0      0.00%     68.98% # Type of FU issued
system.cpu.iq.FU_type_0::SimdSha256Hash2            0      0.00%     68.98% # Type of FU issued
system.cpu.iq.FU_type_0::SimdShaSigma2              0      0.00%     68.98% # Type of FU issued
system.cpu.iq.FU_type_0::SimdShaSigma3              0      0.00%     68.98% # Type of FU issued
system.cpu.iq.FU_type_0::SimdPredAlu                0      0.00%     68.98% # Type of FU issued
system.cpu.iq.FU_type_0::MemRead             19239896     16.55%     85.53% # Type of FU issued
system.cpu.iq.FU_type_0::MemWrite            16816158     14.47%    100.00% # Type of FU issued
system.cpu.iq.FU_type_0::FloatMemRead               0      0.00%    100.00% # Type of FU issued
system.cpu.iq.FU_type_0::FloatMemWrite              0      0.00%    100.00% # Type of FU issued
system.cpu.iq.FU_type_0::IprAccess                  0      0.00%    100.00% # Type of FU issued
system.cpu.iq.FU_type_0::InstPrefetch               0      0.00%    100.00% # Type of FU issued
system.cpu.iq.FU_type_0::total              116238278                       # Type of FU issued
system.cpu.iq.fp_alu_accesses                       0                       # Number of floating point alu accesses
system.cpu.iq.fp_inst_queue_reads                   0                       # Number of floating instruction queue reads
system.cpu.iq.fp_inst_queue_wakeup_accesses            0                       # Number of floating instruction queue wakeup accesses
system.cpu.iq.fp_inst_queue_writes                  0                       # Number of floating instruction queue writes
system.cpu.iq.fu_busy_cnt                     2380953                       # FU busy when requested
system.cpu.iq.fu_busy_rate                   0.020483                       # FU busy rate (busy events/executed inst)
system.cpu.iq.fu_full::No_OpClass                   0      0.00%      0.00% # attempts to use FU when none available
system.cpu.iq.fu_full::IntAlu                  711828     29.90%     29.90% # attempts to use FU when none available
system.cpu.iq.fu_full::IntMult                      0      0.00%     29.90% # attempts to use FU when none available
system.cpu.iq.fu_full::IntDiv                       0      0.00%     29.90% # attempts to use FU when none available
system.cpu.iq.fu_full::FloatAdd                     0      0.00%     29.90% # attempts to use FU when none available
system.cpu.iq.fu_full::FloatCmp                     0      0.00%     29.90% # attempts to use FU when none available
system.cpu.iq.fu_full::FloatCvt                     0      0.00%     29.90% # attempts to use FU when none available
system.cpu.iq.fu_full::FloatMult                    0      0.00%     29.90% # attempts to use FU when none available
system.cpu.iq.fu_full::FloatMultAcc                 0      0.00%     29.90% # attempts to use FU when none available
system.cpu.iq.fu_full::FloatDiv                     0      0.00%     29.90% # attempts to use FU when none available
system.cpu.iq.fu_full::FloatMisc                    0      0.00%     29.90% # attempts to use FU when none available
system.cpu.iq.fu_full::FloatSqrt                    0      0.00%     29.90% # attempts to use FU when none available
system.cpu.iq.fu_full::SimdAdd                      0      0.00%     29.90% # attempts to use FU when none available
system.cpu.iq.fu_full::SimdAddAcc                   0      0.00%     29.90% # attempts to use FU when none available
system.cpu.iq.fu_full::SimdAlu                      2      0.00%     29.90% # attempts to use FU when none available
system.cpu.iq.fu_full::SimdCmp                      2      0.00%     29.90% # attempts to use FU when none available
system.cpu.iq.fu_full::SimdCvt                      0      0.00%     29.90% # attempts to use FU when none available
system.cpu.iq.fu_full::SimdMisc                     0      0.00%     29.90% # attempts to use FU when none available
system.cpu.iq.fu_full::SimdMult                     0      0.00%     29.90% # attempts to use FU when none available
system.cpu.iq.fu_full::SimdMultAcc                  0      0.00%     29.90% # attempts to use FU when none available
system.cpu.iq.fu_full::SimdShift                    0      0.00%     29.90% # attempts to use FU when none available
system.cpu.iq.fu_full::SimdShiftAcc                 0      0.00%     29.90% # attempts to use FU when none available
system.cpu.iq.fu_full::SimdDiv                      0      0.00%     29.90% # attempts to use FU when none available
system.cpu.iq.fu_full::SimdSqrt                     0      0.00%     29.90% # attempts to use FU when none available
system.cpu.iq.fu_full::SimdFloatAdd                 0      0.00%     29.90% # attempts to use FU when none available
system.cpu.iq.fu_full::SimdFloatAlu                 0      0.00%     29.90% # attempts to use FU when none available
system.cpu.iq.fu_full::SimdFloatCmp                 0      0.00%     29.90% # attempts to use FU when none available
system.cpu.iq.fu_full::SimdFloatCvt                 0      0.00%     29.90% # attempts to use FU when none available
system.cpu.iq.fu_full::SimdFloatDiv                 0      0.00%     29.90% # attempts to use FU when none available
system.cpu.iq.fu_full::SimdFloatMisc                0      0.00%     29.90% # attempts to use FU when none available
system.cpu.iq.fu_full::SimdFloatMult                0      0.00%     29.90% # attempts to use FU when none available
system.cpu.iq.fu_full::SimdFloatMultAcc             0      0.00%     29.90% # attempts to use FU when none available
system.cpu.iq.fu_full::SimdFloatSqrt                0      0.00%     29.90% # attempts to use FU when none available
system.cpu.iq.fu_full::SimdReduceAdd                0      0.00%     29.90% # attempts to use FU when none available
system.cpu.iq.fu_full::SimdReduceAlu                0      0.00%     29.90% # attempts to use FU when none available
system.cpu.iq.fu_full::SimdReduceCmp                0      0.00%     29.90% # attempts to use FU when none available
system.cpu.iq.fu_full::SimdFloatReduceAdd            0      0.00%     29.90% # attempts to use FU when none available
system.cpu.iq.fu_full::SimdFloatReduceCmp            0      0.00%     29.90% # attempts to use FU when none available
system.cpu.iq.fu_full::SimdAes                      0      0.00%     29.90% # attempts to use FU when none available
system.cpu.iq.fu_full::SimdAesMix                   0      0.00%     29.90% # attempts to use FU when none available
system.cpu.iq.fu_full::SimdSha1Hash                 0      0.00%     29.90% # attempts to use FU when none available
system.cpu.iq.fu_full::SimdSha1Hash2                0      0.00%     29.90% # attempts to use FU when none available
system.cpu.iq.fu_full::SimdSha256Hash               0      0.00%     29.90% # attempts to use FU when none available
system.cpu.iq.fu_full::SimdSha256Hash2              0      0.00%     29.90% # attempts to use FU when none available
system.cpu.iq.fu_full::SimdShaSigma2                0      0.00%     29.90% # attempts to use FU when none available
system.cpu.iq.fu_full::SimdShaSigma3                0      0.00%     29.90% # attempts to use FU when none available
system.cpu.iq.fu_full::SimdPredAlu                  0      0.00%     29.90% # attempts to use FU when none available
system.cpu.iq.fu_full::MemRead                 563210     23.65%     53.55% # attempts to use FU when none available
system.cpu.iq.fu_full::MemWrite               1105911     46.45%    100.00% # attempts to use FU when none available
system.cpu.iq.fu_full::FloatMemRead                 0      0.00%    100.00% # attempts to use FU when none available
system.cpu.iq.fu_full::FloatMemWrite                0      0.00%    100.00% # attempts to use FU when none available
system.cpu.iq.fu_full::IprAccess                    0      0.00%    100.00% # attempts to use FU when none available
system.cpu.iq.fu_full::InstPrefetch                 0      0.00%    100.00% # attempts to use FU when none available
system.cpu.iq.int_alu_accesses              116617949                       # Number of integer alu accesses
system.cpu.iq.int_inst_queue_reads          290714145                       # Number of integer instruction queue reads
system.cpu.iq.int_inst_queue_wakeup_accesses    112649456                       # Number of integer instruction queue wakeup accesses
system.cpu.iq.int_inst_queue_writes         115945071                       # Number of integer instruction queue writes
system.cpu.iq.iqInstsAdded                  115115565                       # Number of instructions added to the IQ (excludes non-spec)
system.cpu.iq.iqInstsIssued                 116238278                       # Number of instructions issued
system.cpu.iq.iqNonSpecInstsAdded              105771                       # Number of non-speculative instructions added to the IQ
system.cpu.iq.iqSquashedInstsExamined         2556488                       # Number of squashed instructions iterated over during squash; mainly for profiling
system.cpu.iq.iqSquashedInstsIssued              2180                       # Number of squashed instructions issued
system.cpu.iq.iqSquashedNonSpecRemoved            159                       # Number of squashed non-spec instructions that were removed
system.cpu.iq.iqSquashedOperandsExamined      1294864                       # Number of squashed operands that are examined and possibly removed from graph
system.cpu.iq.issued_per_cycle::samples      59646088                       # Number of insts issued each cycle
system.cpu.iq.issued_per_cycle::mean         1.948800                       # Number of insts issued each cycle
system.cpu.iq.issued_per_cycle::stdev        2.214356                       # Number of insts issued each cycle
system.cpu.iq.issued_per_cycle::underflows            0      0.00%      0.00% # Number of insts issued each cycle
system.cpu.iq.issued_per_cycle::0            25461186     42.69%     42.69% # Number of insts issued each cycle
system.cpu.iq.issued_per_cycle::1             6208630     10.41%     53.10% # Number of insts issued each cycle
system.cpu.iq.issued_per_cycle::2             7320574     12.27%     65.37% # Number of insts issued each cycle
system.cpu.iq.issued_per_cycle::3             5834683      9.78%     75.15% # Number of insts issued each cycle
system.cpu.iq.issued_per_cycle::4             5231774      8.77%     83.92% # Number of insts issued each cycle
system.cpu.iq.issued_per_cycle::5             3825374      6.41%     90.34% # Number of insts issued each cycle
system.cpu.iq.issued_per_cycle::6             3482749      5.84%     96.18% # Number of insts issued each cycle
system.cpu.iq.issued_per_cycle::7             1314953      2.20%     98.38% # Number of insts issued each cycle
system.cpu.iq.issued_per_cycle::8              966165      1.62%    100.00% # Number of insts issued each cycle
system.cpu.iq.issued_per_cycle::overflows            0      0.00%    100.00% # Number of insts issued each cycle
system.cpu.iq.issued_per_cycle::min_value            0                       # Number of insts issued each cycle
system.cpu.iq.issued_per_cycle::max_value            8                       # Number of insts issued each cycle
system.cpu.iq.issued_per_cycle::total        59646088                       # Number of insts issued each cycle
system.cpu.iq.rate                           1.947319                       # Inst issue rate
system.cpu.iq.vec_alu_accesses                1924863                       # Number of vector alu accesses
system.cpu.iq.vec_inst_queue_reads            3791628                       # Number of vector instruction queue reads
system.cpu.iq.vec_inst_queue_wakeup_accesses      1786941                       # Number of vector instruction queue wakeup accesses
system.cpu.iq.vec_inst_queue_writes           1833459                       # Number of vector instruction queue writes
system.cpu.itb.accesses                             0                       # DTB accesses
system.cpu.itb.align_faults                         0                       # Number of TLB faults due to alignment restrictions
system.cpu.itb.domain_faults                        0                       # Number of TLB faults due to domain restrictions
system.cpu.itb.flush_entries                        0                       # Number of entries that have been flushed from TLB
system.cpu.itb.flush_tlb                            0                       # Number of times complete TLB was flushed
system.cpu.itb.flush_tlb_asid                       0                       # Number of times TLB was flushed by ASID
system.cpu.itb.flush_tlb_mva                        0                       # Number of times TLB was flushed by MVA
system.cpu.itb.flush_tlb_mva_asid                   0                       # Number of times TLB was flushed by MVA & ASID
system.cpu.itb.hits                                 0                       # DTB hits
system.cpu.itb.inst_accesses                        0                       # ITB inst accesses
system.cpu.itb.inst_hits                            0                       # ITB inst hits
system.cpu.itb.inst_misses                          0                       # ITB inst misses
system.cpu.itb.misses                               0                       # DTB misses
system.cpu.itb.perms_faults                         0                       # Number of TLB faults due to permissions restrictions
system.cpu.itb.prefetch_faults                      0                       # Number of TLB faults due to prefetch
system.cpu.itb.read_accesses                        0                       # DTB read accesses
system.cpu.itb.read_hits                            0                       # DTB read hits
system.cpu.itb.read_misses                          0                       # DTB read misses
system.cpu.itb.stage2_mmu.stage2_tlb.accesses            0                       # DTB accesses
system.cpu.itb.stage2_mmu.stage2_tlb.align_faults            0                       # Number of TLB faults due to alignment restrictions
system.cpu.itb.stage2_mmu.stage2_tlb.domain_faults            0                       # Number of TLB faults due to domain restrictions
system.cpu.itb.stage2_mmu.stage2_tlb.flush_entries            0                       # Number of entries that have been flushed from TLB
system.cpu.itb.stage2_mmu.stage2_tlb.flush_tlb            0                       # Number of times complete TLB was flushed
system.cpu.itb.stage2_mmu.stage2_tlb.flush_tlb_asid            0                       # Number of times TLB was flushed by ASID
system.cpu.itb.stage2_mmu.stage2_tlb.flush_tlb_mva            0                       # Number of times TLB was flushed by MVA
system.cpu.itb.stage2_mmu.stage2_tlb.flush_tlb_mva_asid            0                       # Number of times TLB was flushed by MVA & ASID
system.cpu.itb.stage2_mmu.stage2_tlb.hits            0                       # DTB hits
system.cpu.itb.stage2_mmu.stage2_tlb.inst_accesses            0                       # ITB inst accesses
system.cpu.itb.stage2_mmu.stage2_tlb.inst_hits            0                       # ITB inst hits
system.cpu.itb.stage2_mmu.stage2_tlb.inst_misses            0                       # ITB inst misses
system.cpu.itb.stage2_mmu.stage2_tlb.misses            0                       # DTB misses
system.cpu.itb.stage2_mmu.stage2_tlb.perms_faults            0                       # Number of TLB faults due to permissions restrictions
system.cpu.itb.stage2_mmu.stage2_tlb.prefetch_faults            0                       # Number of TLB faults due to prefetch
system.cpu.itb.stage2_mmu.stage2_tlb.read_accesses            0                       # DTB read accesses
system.cpu.itb.stage2_mmu.stage2_tlb.read_hits            0                       # DTB read hits
system.cpu.itb.stage2_mmu.stage2_tlb.read_misses            0                       # DTB read misses
system.cpu.itb.stage2_mmu.stage2_tlb.walker.walkRequestOrigin_Requested::Data            0                       # Table walker requests started/completed, data/inst
system.cpu.itb.stage2_mmu.stage2_tlb.walker.walkRequestOrigin_Requested::Inst            0                       # Table walker requests started/completed, data/inst
system.cpu.itb.stage2_mmu.stage2_tlb.walker.walkRequestOrigin_Requested::total            0                       # Table walker requests started/completed, data/inst
system.cpu.itb.stage2_mmu.stage2_tlb.walker.walkRequestOrigin_Completed::Data            0                       # Table walker requests started/completed, data/inst
system.cpu.itb.stage2_mmu.stage2_tlb.walker.walkRequestOrigin_Completed::Inst            0                       # Table walker requests started/completed, data/inst
system.cpu.itb.stage2_mmu.stage2_tlb.walker.walkRequestOrigin_Completed::total            0                       # Table walker requests started/completed, data/inst
system.cpu.itb.stage2_mmu.stage2_tlb.walker.walkRequestOrigin::total            0                       # Table walker requests started/completed, data/inst
system.cpu.itb.stage2_mmu.stage2_tlb.walker.walks            0                       # Table walker walks requested
system.cpu.itb.stage2_mmu.stage2_tlb.write_accesses            0                       # DTB write accesses
system.cpu.itb.stage2_mmu.stage2_tlb.write_hits            0                       # DTB write hits
system.cpu.itb.stage2_mmu.stage2_tlb.write_misses            0                       # DTB write misses
system.cpu.itb.walker.walkRequestOrigin_Requested::Data            0                       # Table walker requests started/completed, data/inst
system.cpu.itb.walker.walkRequestOrigin_Requested::Inst            0                       # Table walker requests started/completed, data/inst
system.cpu.itb.walker.walkRequestOrigin_Requested::total            0                       # Table walker requests started/completed, data/inst
system.cpu.itb.walker.walkRequestOrigin_Completed::Data            0                       # Table walker requests started/completed, data/inst
system.cpu.itb.walker.walkRequestOrigin_Completed::Inst            0                       # Table walker requests started/completed, data/inst
system.cpu.itb.walker.walkRequestOrigin_Completed::total            0                       # Table walker requests started/completed, data/inst
system.cpu.itb.walker.walkRequestOrigin::total            0                       # Table walker requests started/completed, data/inst
system.cpu.itb.walker.walks                         0                       # Table walker walks requested
system.cpu.itb.write_accesses                       0                       # DTB write accesses
system.cpu.itb.write_hits                           0                       # DTB write hits
system.cpu.itb.write_misses                         0                       # DTB write misses
system.cpu.memDep0.conflictingLoads            877014                       # Number of conflicting loads.
system.cpu.memDep0.conflictingStores           414103                       # Number of conflicting stores.
system.cpu.memDep0.insertedLoads             17742772                       # Number of loads inserted to the mem dependence unit.
system.cpu.memDep0.insertedStores            16890799                       # Number of stores inserted to the mem dependence unit.
system.cpu.misc_regfile_reads                78928594                       # number of misc regfile reads
system.cpu.misc_regfile_writes                 422033                       # number of misc regfile writes
system.cpu.numCycles                         59691434                       # number of cpu cycles simulated
system.cpu.numWorkItemsCompleted                    0                       # number of work items this cpu completed
system.cpu.numWorkItemsStarted                      0                       # number of work items this cpu started
system.cpu.rename.BlockCycles                  529006                       # Number of cycles rename is blocking
system.cpu.rename.CommittedMaps             122102411                       # Number of HB maps that are committed
system.cpu.rename.IQFullEvents                    176                       # Number of times rename has blocked due to IQ full
system.cpu.rename.IdleCycles                 14147302                       # Number of cycles rename is idle
system.cpu.rename.LQFullEvents                     23                       # Number of times rename has blocked due to LQ full
system.cpu.rename.ROBFullEvents                     5                       # Number of times rename has blocked due to ROB full
system.cpu.rename.RenameLookups             186168223                       # Number of register rename lookups that rename has made
system.cpu.rename.RenamedInsts              115640079                       # Number of instructions processed by rename
system.cpu.rename.RenamedOperands           125625791                       # Number of destination operands rename has renamed
system.cpu.rename.RunCycles                  21637880                       # Number of cycles rename is running
system.cpu.rename.SQFullEvents                4354893                       # Number of times rename has blocked due to SQ full
system.cpu.rename.SquashCycles                  83469                       # Number of cycles rename is squashing
system.cpu.rename.UnblockCycles               4760153                       # Number of cycles rename is unblocking
system.cpu.rename.UndoneMaps                  3523340                       # Number of HB maps that are undone due to squashing
system.cpu.rename.int_rename_lookups        130029878                       # Number of integer rename lookups
system.cpu.rename.serializeStallCycles       18488278                       # count of cycles rename stalled for serializing inst
system.cpu.rename.serializingInsts             346453                       # count of serializing insts renamed
system.cpu.rename.skidInsts                   2152874                       # count of insts added to the skid buffer
system.cpu.rename.tempSerializingInsts         105773                       # count of temporary serializing insts renamed
system.cpu.rename.vec_rename_lookups          2220707                       # Number of vector rename lookups
system.cpu.rob.rob_reads                    168048128                       # The number of ROB reads
system.cpu.rob.rob_writes                   230853047                       # The number of ROB writes
system.cpu.timesIdled                             388                       # Number of times that the entire CPU went into an idle state and unscheduled itself
system.cpu.vec_regfile_reads                  2188551                       # number of vector regfile reads
system.cpu.vec_regfile_writes                  919525                       # number of vector regfile writes
system.cpu.workload.numSyscalls                   103                       # Number of system calls
system.membus.snoop_filter.hit_multi_requests            0                       # Number of requests hitting in the snoop filter with multiple (>1) holders of the requested data.
system.membus.snoop_filter.hit_multi_snoops            0                       # Number of snoops hitting in the snoop filter with multiple (>1) holders of the requested data.
system.membus.snoop_filter.hit_single_requests       181896                       # Number of requests hitting in the snoop filter with a single holder of the requested data.
system.membus.snoop_filter.hit_single_snoops            0                       # Number of snoops hitting in the snoop filter with a single holder of the requested data.
system.membus.snoop_filter.tot_requests        381483                       # Total number of requests made to the snoop filter.
system.membus.snoop_filter.tot_snoops               0                       # Total number of snoops made to the snoop filter.
system.tol2bus.snoop_filter.hit_multi_requests            1                       # Number of requests hitting in the snoop filter with multiple (>1) holders of the requested data.
system.tol2bus.snoop_filter.hit_multi_snoops            0                       # Number of snoops hitting in the snoop filter with multiple (>1) holders of the requested data.
system.tol2bus.snoop_filter.hit_single_requests       202952                       # Number of requests hitting in the snoop filter with a single holder of the requested data.
system.tol2bus.snoop_filter.hit_single_snoops        72919                       # Number of snoops hitting in the snoop filter with a single holder of the requested data.
system.tol2bus.snoop_filter.tot_requests       410543                       # Total number of requests made to the snoop filter.
system.tol2bus.snoop_filter.tot_snoops          72919                       # Total number of snoops made to the snoop filter.
system.membus.trans_dist::ReadResp              37582                       # Transaction distribution
system.membus.trans_dist::WritebackDirty       180129                       # Transaction distribution
system.membus.trans_dist::CleanEvict             1767                       # Transaction distribution
system.membus.trans_dist::ReadExReq            161989                       # Transaction distribution
system.membus.trans_dist::ReadExResp           161989                       # Transaction distribution
system.membus.trans_dist::ReadSharedReq         37582                       # Transaction distribution
system.membus.trans_dist::InvalidateReq            16                       # Transaction distribution
system.membus.pkt_count_system.l2.mem_side::system.mem_ctrls.port       581054                       # Packet count per connected master and slave (bytes)
system.membus.pkt_count::total                 581054                       # Packet count per connected master and slave (bytes)
system.membus.pkt_size_system.l2.mem_side::system.mem_ctrls.port     24300800                       # Cumulative packet size per connected master and slave (bytes)
system.membus.pkt_size::total                24300800                       # Cumulative packet size per connected master and slave (bytes)
system.membus.snoops                                0                       # Total snoops (count)
system.membus.snoopTraffic                          0                       # Total snoop traffic (bytes)
system.membus.snoop_fanout::samples            199587                       # Request fanout histogram
system.membus.snoop_fanout::mean                    0                       # Request fanout histogram
system.membus.snoop_fanout::stdev                   0                       # Request fanout histogram
system.membus.snoop_fanout::underflows              0      0.00%      0.00% # Request fanout histogram
system.membus.snoop_fanout::0                  199587    100.00%    100.00% # Request fanout histogram
system.membus.snoop_fanout::1                       0      0.00%    100.00% # Request fanout histogram
system.membus.snoop_fanout::overflows               0      0.00%    100.00% # Request fanout histogram
system.membus.snoop_fanout::min_value               0                       # Request fanout histogram
system.membus.snoop_fanout::max_value               0                       # Request fanout histogram
system.membus.snoop_fanout::total              199587                       # Request fanout histogram
system.membus.reqLayer0.occupancy          1135135000                       # Layer occupancy (ticks)
system.membus.reqLayer0.utilization               3.8                       # Layer utilization (%)
system.membus.respLayer1.occupancy         1040039500                       # Layer occupancy (ticks)
system.membus.respLayer1.utilization              3.5                       # Layer utilization (%)
system.membus.power_state.pwrStateResidencyTicks::UNDEFINED  29845716500                       # Cumulative time (in ticks) in various power states
system.tol2bus.trans_dist::ReadResp             45586                       # Transaction distribution
system.tol2bus.trans_dist::WritebackDirty       378266                       # Transaction distribution
system.tol2bus.trans_dist::CleanEvict           77804                       # Transaction distribution
system.tol2bus.trans_dist::ReadExReq           161989                       # Transaction distribution
system.tol2bus.trans_dist::ReadExResp          161989                       # Transaction distribution
system.tol2bus.trans_dist::ReadCleanReq           543                       # Transaction distribution
system.tol2bus.trans_dist::ReadSharedReq        45043                       # Transaction distribution
system.tol2bus.trans_dist::InvalidateReq           16                       # Transaction distribution
system.tol2bus.trans_dist::InvalidateResp           16                       # Transaction distribution
system.tol2bus.pkt_count_system.cpu.icache.mem_side::system.l2.cpu_side         1086                       # Packet count per connected master and slave (bytes)
system.tol2bus.pkt_count_system.cpu.dcache.mem_side::system.l2.cpu_side       617048                       # Packet count per connected master and slave (bytes)
system.tol2bus.pkt_count::total                618134                       # Packet count per connected master and slave (bytes)
system.tol2bus.pkt_size_system.cpu.icache.mem_side::system.l2.cpu_side        34752                       # Cumulative packet size per connected master and slave (bytes)
system.tol2bus.pkt_size_system.cpu.dcache.mem_side::system.l2.cpu_side     25930816                       # Cumulative packet size per connected master and slave (bytes)
system.tol2bus.pkt_size::total               25965568                       # Cumulative packet size per connected master and slave (bytes)
system.tol2bus.snoops                          253118                       # Total snoops (count)
system.tol2bus.snoopTraffic                  11528256                       # Total snoop traffic (bytes)
system.tol2bus.snoop_fanout::samples           460709                       # Request fanout histogram
system.tol2bus.snoop_fanout::mean            0.158278                       # Request fanout histogram
system.tol2bus.snoop_fanout::stdev           0.365002                       # Request fanout histogram
system.tol2bus.snoop_fanout::underflows             0      0.00%      0.00% # Request fanout histogram
system.tol2bus.snoop_fanout::0                 387789     84.17%     84.17% # Request fanout histogram
system.tol2bus.snoop_fanout::1                  72920     15.83%    100.00% # Request fanout histogram
system.tol2bus.snoop_fanout::2                      0      0.00%    100.00% # Request fanout histogram
system.tol2bus.snoop_fanout::overflows              0      0.00%    100.00% # Request fanout histogram
system.tol2bus.snoop_fanout::min_value              0                       # Request fanout histogram
system.tol2bus.snoop_fanout::max_value              1                       # Request fanout histogram
system.tol2bus.snoop_fanout::total             460709                       # Request fanout histogram
system.tol2bus.reqLayer0.occupancy          403408500                       # Layer occupancy (ticks)
system.tol2bus.reqLayer0.utilization              1.4                       # Layer utilization (%)
system.tol2bus.respLayer1.occupancy         310556000                       # Layer occupancy (ticks)
system.tol2bus.respLayer1.utilization             1.0                       # Layer utilization (%)
system.tol2bus.respLayer0.occupancy            814500                       # Layer occupancy (ticks)
system.tol2bus.respLayer0.utilization             0.0                       # Layer utilization (%)
system.tol2bus.power_state.pwrStateResidencyTicks::UNDEFINED  29845716500                       # Cumulative time (in ticks) in various power states
system.voltage_domain.voltage                       1                       # Voltage in Volts
system.clk_domain.clock                          1000                       # Clock period in ticks
system.l2.demand_hits::.cpu.inst                    1                       # number of demand (read+write) hits
system.l2.demand_hits::.cpu.data                 8003                       # number of demand (read+write) hits
system.l2.demand_hits::total                     8004                       # number of demand (read+write) hits
system.l2.overall_hits::.cpu.inst                   1                       # number of overall hits
system.l2.overall_hits::.cpu.data                8003                       # number of overall hits
system.l2.overall_hits::total                    8004                       # number of overall hits
system.l2.demand_misses::.cpu.inst                542                       # number of demand (read+write) misses
system.l2.demand_misses::.cpu.data             199029                       # number of demand (read+write) misses
system.l2.demand_misses::total                 199571                       # number of demand (read+write) misses
system.l2.overall_misses::.cpu.inst               542                       # number of overall misses
system.l2.overall_misses::.cpu.data            199029                       # number of overall misses
system.l2.overall_misses::total                199571                       # number of overall misses
system.l2.demand_miss_latency::.cpu.inst     42947000                       # number of demand (read+write) miss cycles
system.l2.demand_miss_latency::.cpu.data  17968149000                       # number of demand (read+write) miss cycles
system.l2.demand_miss_latency::total      18011096000                       # number of demand (read+write) miss cycles
system.l2.overall_miss_latency::.cpu.inst     42947000                       # number of overall miss cycles
system.l2.overall_miss_latency::.cpu.data  17968149000                       # number of overall miss cycles
system.l2.overall_miss_latency::total     18011096000                       # number of overall miss cycles
system.l2.demand_accesses::.cpu.inst              543                       # number of demand (read+write) accesses
system.l2.demand_accesses::.cpu.data           207032                       # number of demand (read+write) accesses
system.l2.demand_accesses::total               207575                       # number of demand (read+write) accesses
system.l2.overall_accesses::.cpu.inst             543                       # number of overall (read+write) accesses
system.l2.overall_accesses::.cpu.data          207032                       # number of overall (read+write) accesses
system.l2.overall_accesses::total              207575                       # number of overall (read+write) accesses
system.l2.demand_miss_rate::.cpu.inst        0.998158                       # miss rate for demand accesses
system.l2.demand_miss_rate::.cpu.data        0.961344                       # miss rate for demand accesses
system.l2.demand_miss_rate::total            0.961440                       # miss rate for demand accesses
system.l2.overall_miss_rate::.cpu.inst       0.998158                       # miss rate for overall accesses
system.l2.overall_miss_rate::.cpu.data       0.961344                       # miss rate for overall accesses
system.l2.overall_miss_rate::total           0.961440                       # miss rate for overall accesses
system.l2.demand_avg_miss_latency::.cpu.inst 79238.007380                       # average overall miss latency
system.l2.demand_avg_miss_latency::.cpu.data 90279.049787                       # average overall miss latency
system.l2.demand_avg_miss_latency::total 90249.064243                       # average overall miss latency
system.l2.overall_avg_miss_latency::.cpu.inst 79238.007380                       # average overall miss latency
system.l2.overall_avg_miss_latency::.cpu.data 90279.049787                       # average overall miss latency
system.l2.overall_avg_miss_latency::total 90249.064243                       # average overall miss latency
system.l2.blocked_cycles::no_mshrs                  0                       # number of cycles access was blocked
system.l2.blocked_cycles::no_targets                0                       # number of cycles access was blocked
system.l2.blocked::no_mshrs                         0                       # number of cycles access was blocked
system.l2.blocked::no_targets                       0                       # number of cycles access was blocked
system.l2.avg_blocked_cycles::no_mshrs            nan                       # average number of cycles each access was blocked
system.l2.avg_blocked_cycles::no_targets          nan                       # average number of cycles each access was blocked
system.l2.writebacks::.writebacks              180129                       # number of writebacks
system.l2.writebacks::total                    180129                       # number of writebacks
system.l2.demand_mshr_misses::.cpu.inst           542                       # number of demand (read+write) MSHR misses
system.l2.demand_mshr_misses::.cpu.data        199029                       # number of demand (read+write) MSHR misses
system.l2.demand_mshr_misses::total            199571                       # number of demand (read+write) MSHR misses
system.l2.overall_mshr_misses::.cpu.inst          542                       # number of overall MSHR misses
system.l2.overall_mshr_misses::.cpu.data       199029                       # number of overall MSHR misses
system.l2.overall_mshr_misses::total           199571                       # number of overall MSHR misses
system.l2.demand_mshr_miss_latency::.cpu.inst     37527000                       # number of demand (read+write) MSHR miss cycles
system.l2.demand_mshr_miss_latency::.cpu.data  15977859000                       # number of demand (read+write) MSHR miss cycles
system.l2.demand_mshr_miss_latency::total  16015386000                       # number of demand (read+write) MSHR miss cycles
system.l2.overall_mshr_miss_latency::.cpu.inst     37527000                       # number of overall MSHR miss cycles
system.l2.overall_mshr_miss_latency::.cpu.data  15977859000                       # number of overall MSHR miss cycles
system.l2.overall_mshr_miss_latency::total  16015386000                       # number of overall MSHR miss cycles
system.l2.demand_mshr_miss_rate::.cpu.inst     0.998158                       # mshr miss rate for demand accesses
system.l2.demand_mshr_miss_rate::.cpu.data     0.961344                       # mshr miss rate for demand accesses
system.l2.demand_mshr_miss_rate::total       0.961440                       # mshr miss rate for demand accesses
system.l2.overall_mshr_miss_rate::.cpu.inst     0.998158                       # mshr miss rate for overall accesses
system.l2.overall_mshr_miss_rate::.cpu.data     0.961344                       # mshr miss rate for overall accesses
system.l2.overall_mshr_miss_rate::total      0.961440                       # mshr miss rate for overall accesses
system.l2.demand_avg_mshr_miss_latency::.cpu.inst 69238.007380                       # average overall mshr miss latency
system.l2.demand_avg_mshr_miss_latency::.cpu.data 80279.049787                       # average overall mshr miss latency
system.l2.demand_avg_mshr_miss_latency::total 80249.064243                       # average overall mshr miss latency
system.l2.overall_avg_mshr_miss_latency::.cpu.inst 69238.007380                       # average overall mshr miss latency
system.l2.overall_avg_mshr_miss_latency::.cpu.data 80279.049787                       # average overall mshr miss latency
system.l2.overall_avg_mshr_miss_latency::total 80249.064243                       # average overall mshr miss latency
system.l2.replacements                         253118                       # number of replacements
system.l2.WritebackDirty_hits::.writebacks       198137                       # number of WritebackDirty hits
system.l2.WritebackDirty_hits::total           198137                       # number of WritebackDirty hits
system.l2.WritebackDirty_accesses::.writebacks       198137                       # number of WritebackDirty accesses(hits+misses)
system.l2.WritebackDirty_accesses::total       198137                       # number of WritebackDirty accesses(hits+misses)
system.l2.CleanEvict_mshr_misses::.writebacks         1697                       # number of CleanEvict MSHR misses
system.l2.CleanEvict_mshr_misses::total          1697                       # number of CleanEvict MSHR misses
system.l2.CleanEvict_mshr_miss_rate::.writebacks          inf                       # mshr miss rate for CleanEvict accesses
system.l2.CleanEvict_mshr_miss_rate::total          inf                       # mshr miss rate for CleanEvict accesses
system.l2.ReadExReq_misses::.cpu.data          161989                       # number of ReadExReq misses
system.l2.ReadExReq_misses::total              161989                       # number of ReadExReq misses
system.l2.ReadExReq_miss_latency::.cpu.data  14439535500                       # number of ReadExReq miss cycles
system.l2.ReadExReq_miss_latency::total   14439535500                       # number of ReadExReq miss cycles
system.l2.ReadExReq_accesses::.cpu.data        161989                       # number of ReadExReq accesses(hits+misses)
system.l2.ReadExReq_accesses::total            161989                       # number of ReadExReq accesses(hits+misses)
system.l2.ReadExReq_miss_rate::.cpu.data            1                       # miss rate for ReadExReq accesses
system.l2.ReadExReq_miss_rate::total                1                       # miss rate for ReadExReq accesses
system.l2.ReadExReq_avg_miss_latency::.cpu.data 89138.987833                       # average ReadExReq miss latency
system.l2.ReadExReq_avg_miss_latency::total 89138.987833                       # average ReadExReq miss latency
system.l2.ReadExReq_mshr_misses::.cpu.data       161989                       # number of ReadExReq MSHR misses
system.l2.ReadExReq_mshr_misses::total         161989                       # number of ReadExReq MSHR misses
system.l2.ReadExReq_mshr_miss_latency::.cpu.data  12819645500                       # number of ReadExReq MSHR miss cycles
system.l2.ReadExReq_mshr_miss_latency::total  12819645500                       # number of ReadExReq MSHR miss cycles
system.l2.ReadExReq_mshr_miss_rate::.cpu.data            1                       # mshr miss rate for ReadExReq accesses
system.l2.ReadExReq_mshr_miss_rate::total            1                       # mshr miss rate for ReadExReq accesses
system.l2.ReadExReq_avg_mshr_miss_latency::.cpu.data 79138.987833                       # average ReadExReq mshr miss latency
system.l2.ReadExReq_avg_mshr_miss_latency::total 79138.987833                       # average ReadExReq mshr miss latency
system.l2.ReadCleanReq_hits::.cpu.inst              1                       # number of ReadCleanReq hits
system.l2.ReadCleanReq_hits::total                  1                       # number of ReadCleanReq hits
system.l2.ReadCleanReq_misses::.cpu.inst          542                       # number of ReadCleanReq misses
system.l2.ReadCleanReq_misses::total              542                       # number of ReadCleanReq misses
system.l2.ReadCleanReq_miss_latency::.cpu.inst     42947000                       # number of ReadCleanReq miss cycles
system.l2.ReadCleanReq_miss_latency::total     42947000                       # number of ReadCleanReq miss cycles
system.l2.ReadCleanReq_accesses::.cpu.inst          543                       # number of ReadCleanReq accesses(hits+misses)
system.l2.ReadCleanReq_accesses::total            543                       # number of ReadCleanReq accesses(hits+misses)
system.l2.ReadCleanReq_miss_rate::.cpu.inst     0.998158                       # miss rate for ReadCleanReq accesses
system.l2.ReadCleanReq_miss_rate::total      0.998158                       # miss rate for ReadCleanReq accesses
system.l2.ReadCleanReq_avg_miss_latency::.cpu.inst 79238.007380                       # average ReadCleanReq miss latency
system.l2.ReadCleanReq_avg_miss_latency::total 79238.007380                       # average ReadCleanReq miss latency
system.l2.ReadCleanReq_mshr_misses::.cpu.inst          542                       # number of ReadCleanReq MSHR misses
system.l2.ReadCleanReq_mshr_misses::total          542                       # number of ReadCleanReq MSHR misses
system.l2.ReadCleanReq_mshr_miss_latency::.cpu.inst     37527000                       # number of ReadCleanReq MSHR miss cycles
system.l2.ReadCleanReq_mshr_miss_latency::total     37527000                       # number of ReadCleanReq MSHR miss cycles
system.l2.ReadCleanReq_mshr_miss_rate::.cpu.inst     0.998158                       # mshr miss rate for ReadCleanReq accesses
system.l2.ReadCleanReq_mshr_miss_rate::total     0.998158                       # mshr miss rate for ReadCleanReq accesses
system.l2.ReadCleanReq_avg_mshr_miss_latency::.cpu.inst 69238.007380                       # average ReadCleanReq mshr miss latency
[...]
system.cpu.dcache.demand_accesses::total     33075199                       # number of demand (read+write) accesses
system.cpu.dcache.overall_accesses::.cpu.data     33135349                       # number of overall (read+write) accesses
system.cpu.dcache.overall_accesses::total     33135349                       # number of overall (read+write) accesses
system.cpu.dcache.demand_miss_rate::.cpu.data     0.011311                       # miss rate for demand accesses
system.cpu.dcache.demand_miss_rate::total     0.011311                       # miss rate for demand accesses
system.cpu.dcache.overall_miss_rate::.cpu.data     0.011383                       # miss rate for overall accesses
system.cpu.dcache.overall_miss_rate::total     0.011383                       # miss rate for overall accesses
system.cpu.dcache.demand_avg_miss_latency::.cpu.data 83794.048133                       # average overall miss latency
system.cpu.dcache.demand_avg_miss_latency::total 83794.048133                       # average overall miss latency
system.cpu.dcache.overall_avg_miss_latency::.cpu.data 83110.034129                       # average overall miss latency
system.cpu.dcache.overall_avg_miss_latency::total 83110.034129                       # average overall miss latency
system.cpu.dcache.blocked_cycles::no_mshrs      4270910                       # number of cycles access was blocked
system.cpu.dcache.blocked_cycles::no_targets            0                       # number of cycles access was blocked
system.cpu.dcache.blocked::no_mshrs             54469                       # number of cycles access was blocked
system.cpu.dcache.blocked::no_targets               0                       # number of cycles access was blocked
system.cpu.dcache.avg_blocked_cycles::no_mshrs    78.409921                       # average number of cycles each access was blocked
system.cpu.dcache.avg_blocked_cycles::no_targets          nan                       # average number of cycles each access was blocked
system.cpu.dcache.writebacks::.writebacks       198137                       # number of writebacks
system.cpu.dcache.writebacks::total            198137                       # number of writebacks
system.cpu.dcache.demand_mshr_hits::.cpu.data       167069                       # number of demand (read+write) MSHR hits
system.cpu.dcache.demand_mshr_hits::total       167069                       # number of demand (read+write) MSHR hits
system.cpu.dcache.overall_mshr_hits::.cpu.data       167069                       # number of overall MSHR hits
system.cpu.dcache.overall_mshr_hits::total       167069                       # number of overall MSHR hits
system.cpu.dcache.demand_mshr_misses::.cpu.data       207040                       # number of demand (read+write) MSHR misses
system.cpu.dcache.demand_mshr_misses::total       207040                       # number of demand (read+write) MSHR misses
system.cpu.dcache.overall_mshr_misses::.cpu.data       207047                       # number of overall MSHR misses
system.cpu.dcache.overall_mshr_misses::total       207047                       # number of overall MSHR misses
system.cpu.dcache.demand_mshr_miss_latency::.cpu.data  18453135506                       # number of demand (read+write) MSHR miss cycles
system.cpu.dcache.demand_mshr_miss_latency::total  18453135506                       # number of demand (read+write) MSHR miss cycles
system.cpu.dcache.overall_mshr_miss_latency::.cpu.data  18453526506                       # number of overall MSHR miss cycles
system.cpu.dcache.overall_mshr_miss_latency::total  18453526506                       # number of overall MSHR miss cycles
system.cpu.dcache.demand_mshr_miss_rate::.cpu.data     0.006260                       # mshr miss rate for demand accesses
system.cpu.dcache.demand_mshr_miss_rate::total     0.006260                       # mshr miss rate for demand accesses
system.cpu.dcache.overall_mshr_miss_rate::.cpu.data     0.006249                       # mshr miss rate for overall accesses
system.cpu.dcache.overall_mshr_miss_rate::total     0.006249                       # mshr miss rate for overall accesses
system.cpu.dcache.demand_avg_mshr_miss_latency::.cpu.data 89128.359283                       # average overall mshr miss latency
system.cpu.dcache.demand_avg_mshr_miss_latency::total 89128.359283                       # average overall mshr miss latency
system.cpu.dcache.overall_avg_mshr_miss_latency::.cpu.data 89127.234425                       # average overall mshr miss latency
system.cpu.dcache.overall_avg_mshr_miss_latency::total 89127.234425                       # average overall mshr miss latency
system.cpu.dcache.replacements                 202952                       # number of replacements
system.cpu.dcache.ReadReq_hits::.cpu.data     16471450                       # number of ReadReq hits
system.cpu.dcache.ReadReq_hits::total        16471450                       # number of ReadReq hits
system.cpu.dcache.ReadReq_misses::.cpu.data       110237                       # number of ReadReq misses
system.cpu.dcache.ReadReq_misses::total        110237                       # number of ReadReq misses
system.cpu.dcache.ReadReq_miss_latency::.cpu.data   8061957000                       # number of ReadReq miss cycles
system.cpu.dcache.ReadReq_miss_latency::total   8061957000                       # number of ReadReq miss cycles
system.cpu.dcache.ReadReq_accesses::.cpu.data     16581687                       # number of ReadReq accesses(hits+misses)
system.cpu.dcache.ReadReq_accesses::total     16581687                       # number of ReadReq accesses(hits+misses)
system.cpu.dcache.ReadReq_miss_rate::.cpu.data     0.006648                       # miss rate for ReadReq accesses
system.cpu.dcache.ReadReq_miss_rate::total     0.006648                       # miss rate for ReadReq accesses
system.cpu.dcache.ReadReq_avg_miss_latency::.cpu.data 73132.949917                       # average ReadReq miss latency
system.cpu.dcache.ReadReq_avg_miss_latency::total 73132.949917                       # average ReadReq miss latency
system.cpu.dcache.ReadReq_mshr_hits::.cpu.data        64957                       # number of ReadReq MSHR hits
system.cpu.dcache.ReadReq_mshr_hits::total        64957                       # number of ReadReq MSHR hits
system.cpu.dcache.ReadReq_mshr_misses::.cpu.data        45280                       # number of ReadReq MSHR misses
system.cpu.dcache.ReadReq_mshr_misses::total        45280                       # number of ReadReq MSHR misses
system.cpu.dcache.ReadReq_mshr_miss_latency::.cpu.data   3718324000                       # number of ReadReq MSHR miss cycles
system.cpu.dcache.ReadReq_mshr_miss_latency::total   3718324000                       # number of ReadReq MSHR miss cycles
system.cpu.dcache.ReadReq_mshr_miss_rate::.cpu.data     0.002731                       # mshr miss rate for ReadReq accesses
system.cpu.dcache.ReadReq_mshr_miss_rate::total     0.002731                       # mshr miss rate for ReadReq accesses
system.cpu.dcache.ReadReq_avg_mshr_miss_latency::.cpu.data 82118.462898                       # average ReadReq mshr miss latency
system.cpu.dcache.ReadReq_avg_mshr_miss_latency::total 82118.462898                       # average ReadReq mshr miss latency
system.cpu.dcache.WriteReq_hits::.cpu.data     16229640                       # number of WriteReq hits
system.cpu.dcache.WriteReq_hits::total       16229640                       # number of WriteReq hits
system.cpu.dcache.WriteReq_misses::.cpu.data       263859                       # number of WriteReq misses
system.cpu.dcache.WriteReq_misses::total       263859                       # number of WriteReq misses
system.cpu.dcache.WriteReq_miss_latency::.cpu.data  23285737558                       # number of WriteReq miss cycles
system.cpu.dcache.WriteReq_miss_latency::total  23285737558                       # number of WriteReq miss cycles
system.cpu.dcache.WriteReq_accesses::.cpu.data     16493499                       # number of WriteReq accesses(hits+misses)
system.cpu.dcache.WriteReq_accesses::total     16493499                       # number of WriteReq accesses(hits+misses)
system.cpu.dcache.WriteReq_miss_rate::.cpu.data     0.015998                       # miss rate for WriteReq accesses
system.cpu.dcache.WriteReq_miss_rate::total     0.015998                       # miss rate for WriteReq accesses
system.cpu.dcache.WriteReq_avg_miss_latency::.cpu.data 88250.685245                       # average WriteReq miss latency
system.cpu.dcache.WriteReq_avg_miss_latency::total 88250.685245                       # average WriteReq miss latency
system.cpu.dcache.WriteReq_mshr_hits::.cpu.data       102112                       # number of WriteReq MSHR hits
system.cpu.dcache.WriteReq_mshr_hits::total       102112                       # number of WriteReq MSHR hits
system.cpu.dcache.WriteReq_mshr_misses::.cpu.data       161747                       # number of WriteReq MSHR misses
system.cpu.dcache.WriteReq_mshr_misses::total       161747                       # number of WriteReq MSHR misses
system.cpu.dcache.WriteReq_mshr_miss_latency::.cpu.data  14734411511                       # number of WriteReq MSHR miss cycles
system.cpu.dcache.WriteReq_mshr_miss_latency::total  14734411511                       # number of WriteReq MSHR miss cycles
system.cpu.dcache.WriteReq_mshr_miss_rate::.cpu.data     0.009807                       # mshr miss rate for WriteReq accesses
system.cpu.dcache.WriteReq_mshr_miss_rate::total     0.009807                       # mshr miss rate for WriteReq accesses
system.cpu.dcache.WriteReq_avg_mshr_miss_latency::.cpu.data 91095.423785                       # average WriteReq mshr miss latency
system.cpu.dcache.WriteReq_avg_mshr_miss_latency::total 91095.423785                       # average WriteReq mshr miss latency
system.cpu.dcache.SoftPFReq_hits::.cpu.data        57071                       # number of SoftPFReq hits
system.cpu.dcache.SoftPFReq_hits::total         57071                       # number of SoftPFReq hits
system.cpu.dcache.SoftPFReq_misses::.cpu.data         3079                       # number of SoftPFReq misses
system.cpu.dcache.SoftPFReq_misses::total         3079                       # number of SoftPFReq misses
system.cpu.dcache.SoftPFReq_accesses::.cpu.data        60150                       # number of SoftPFReq accesses(hits+misses)
system.cpu.dcache.SoftPFReq_accesses::total        60150                       # number of SoftPFReq accesses(hits+misses)
system.cpu.dcache.SoftPFReq_miss_rate::.cpu.data     0.051189                       # miss rate for SoftPFReq accesses
system.cpu.dcache.SoftPFReq_miss_rate::total     0.051189                       # miss rate for SoftPFReq accesses
system.cpu.dcache.SoftPFReq_mshr_misses::.cpu.data            7                       # number of SoftPFReq MSHR misses
system.cpu.dcache.SoftPFReq_mshr_misses::total            7                       # number of SoftPFReq MSHR misses
system.cpu.dcache.SoftPFReq_mshr_miss_latency::.cpu.data       391000                       # number of SoftPFReq MSHR miss cycles
system.cpu.dcache.SoftPFReq_mshr_miss_latency::total       391000                       # number of SoftPFReq MSHR miss cycles
system.cpu.dcache.SoftPFReq_mshr_miss_rate::.cpu.data     0.000116                       # mshr miss rate for SoftPFReq accesses
system.cpu.dcache.SoftPFReq_mshr_miss_rate::total     0.000116                       # mshr miss rate for SoftPFReq accesses
system.cpu.dcache.SoftPFReq_avg_mshr_miss_latency::.cpu.data 55857.142857                       # average SoftPFReq mshr miss latency
system.cpu.dcache.SoftPFReq_avg_mshr_miss_latency::total 55857.142857                       # average SoftPFReq mshr miss latency
system.cpu.dcache.WriteLineReq_misses::.cpu.data           13                       # number of WriteLineReq misses
system.cpu.dcache.WriteLineReq_misses::total           13                       # number of WriteLineReq misses
system.cpu.dcache.WriteLineReq_miss_latency::.cpu.data       412995                       # number of WriteLineReq miss cycles
system.cpu.dcache.WriteLineReq_miss_latency::total       412995                       # number of WriteLineReq miss cycles
system.cpu.dcache.WriteLineReq_accesses::.cpu.data           13                       # number of WriteLineReq accesses(hits+misses)
system.cpu.dcache.WriteLineReq_accesses::total           13                       # number of WriteLineReq accesses(hits+misses)
system.cpu.dcache.WriteLineReq_miss_rate::.cpu.data            1                       # miss rate for WriteLineReq accesses
system.cpu.dcache.WriteLineReq_miss_rate::total            1                       # miss rate for WriteLineReq accesses
system.cpu.dcache.WriteLineReq_avg_miss_latency::.cpu.data 31768.846154                       # average WriteLineReq miss latency
system.cpu.dcache.WriteLineReq_avg_miss_latency::total 31768.846154                       # average WriteLineReq miss latency
system.cpu.dcache.WriteLineReq_mshr_misses::.cpu.data           13                       # number of WriteLineReq MSHR misses
system.cpu.dcache.WriteLineReq_mshr_misses::total           13                       # number of WriteLineReq MSHR misses
system.cpu.dcache.WriteLineReq_mshr_miss_latency::.cpu.data       399995                       # number of WriteLineReq MSHR miss cycles
system.cpu.dcache.WriteLineReq_mshr_miss_latency::total       399995                       # number of WriteLineReq MSHR miss cycles
system.cpu.dcache.WriteLineReq_mshr_miss_rate::.cpu.data            1                       # mshr miss rate for WriteLineReq accesses
system.cpu.dcache.WriteLineReq_mshr_miss_rate::total            1                       # mshr miss rate for WriteLineReq accesses
system.cpu.dcache.WriteLineReq_avg_mshr_miss_latency::.cpu.data 30768.846154                       # average WriteLineReq mshr miss latency
system.cpu.dcache.WriteLineReq_avg_mshr_miss_latency::total 30768.846154                       # average WriteLineReq mshr miss latency
system.cpu.dcache.LoadLockedReq_hits::.cpu.data       105651                       # number of LoadLockedReq hits
system.cpu.dcache.LoadLockedReq_hits::total       105651                       # number of LoadLockedReq hits
system.cpu.dcache.LoadLockedReq_misses::.cpu.data            2                       # number of LoadLockedReq misses
system.cpu.dcache.LoadLockedReq_misses::total            2                       # number of LoadLockedReq misses
system.cpu.dcache.LoadLockedReq_miss_latency::.cpu.data       158500                       # number of LoadLockedReq miss cycles
system.cpu.dcache.LoadLockedReq_miss_latency::total       158500                       # number of LoadLockedReq miss cycles
system.cpu.dcache.LoadLockedReq_accesses::.cpu.data       105653                       # number of LoadLockedReq accesses(hits+misses)
system.cpu.dcache.LoadLockedReq_accesses::total       105653                       # number of LoadLockedReq accesses(hits+misses)
system.cpu.dcache.LoadLockedReq_miss_rate::.cpu.data     0.000019                       # miss rate for LoadLockedReq accesses
system.cpu.dcache.LoadLockedReq_miss_rate::total     0.000019                       # miss rate for LoadLockedReq accesses
system.cpu.dcache.LoadLockedReq_avg_miss_latency::.cpu.data        79250                       # average LoadLockedReq miss latency
system.cpu.dcache.LoadLockedReq_avg_miss_latency::total        79250                       # average LoadLockedReq miss latency
system.cpu.dcache.LoadLockedReq_mshr_hits::.cpu.data            1                       # number of LoadLockedReq MSHR hits
system.cpu.dcache.LoadLockedReq_mshr_hits::total            1                       # number of LoadLockedReq MSHR hits
system.cpu.dcache.LoadLockedReq_mshr_misses::.cpu.data            1                       # number of LoadLockedReq MSHR misses
system.cpu.dcache.LoadLockedReq_mshr_misses::total            1                       # number of LoadLockedReq MSHR misses
system.cpu.dcache.LoadLockedReq_mshr_miss_latency::.cpu.data        85000                       # number of LoadLockedReq MSHR miss cycles
system.cpu.dcache.LoadLockedReq_mshr_miss_latency::total        85000                       # number of LoadLockedReq MSHR miss cycles
system.cpu.dcache.LoadLockedReq_mshr_miss_rate::.cpu.data     0.000009                       # mshr miss rate for LoadLockedReq accesses
system.cpu.dcache.LoadLockedReq_mshr_miss_rate::total     0.000009                       # mshr miss rate for LoadLockedReq accesses
system.cpu.dcache.LoadLockedReq_avg_mshr_miss_latency::.cpu.data        85000                       # average LoadLockedReq mshr miss latency
system.cpu.dcache.LoadLockedReq_avg_mshr_miss_latency::total        85000                       # average LoadLockedReq mshr miss latency
system.cpu.dcache.StoreCondReq_hits::.cpu.data       105508                       # number of StoreCondReq hits
system.cpu.dcache.StoreCondReq_hits::total       105508                       # number of StoreCondReq hits
system.cpu.dcache.StoreCondReq_accesses::.cpu.data       105508                       # number of StoreCondReq accesses(hits+misses)
system.cpu.dcache.StoreCondReq_accesses::total       105508                       # number of StoreCondReq accesses(hits+misses)
system.cpu.dcache.power_state.pwrStateResidencyTicks::UNDEFINED  29845716500                       # Cumulative time (in ticks) in various power states
system.cpu.dcache.tags.tagsinuse          4069.626535                       # Cycle average of tags in use
system.cpu.dcache.tags.total_refs            33176368                       # Total number of references to valid blocks.
system.cpu.dcache.tags.sampled_refs            207048                       # Sample count of references to valid blocks.
system.cpu.dcache.tags.avg_refs            160.235153                       # Average number of references to valid blocks.
system.cpu.dcache.tags.warmup_cycle            176500                       # Cycle when the warmup percentage was hit.
system.cpu.dcache.tags.occ_blocks::.cpu.data  4069.626535                       # Average occupied blocks per requestor
system.cpu.dcache.tags.occ_percent::.cpu.data     0.993561                       # Average percentage of cache occupancy
system.cpu.dcache.tags.occ_percent::total     0.993561                       # Average percentage of cache occupancy
system.cpu.dcache.tags.occ_task_id_blocks::1024         4096                       # Occupied blocks per task id
system.cpu.dcache.tags.age_task_id_blocks_1024::0           24                       # Occupied blocks per task id
system.cpu.dcache.tags.age_task_id_blocks_1024::1          263                       # Occupied blocks per task id
system.cpu.dcache.tags.age_task_id_blocks_1024::2         2302                       # Occupied blocks per task id
system.cpu.dcache.tags.age_task_id_blocks_1024::3         1332                       # Occupied blocks per task id
system.cpu.dcache.tags.age_task_id_blocks_1024::4          175                       # Occupied blocks per task id
system.cpu.dcache.tags.occ_task_id_percent::1024            1                       # Percentage of cache occupancy per task id
system.cpu.dcache.tags.tag_accesses         266979128                       # Number of tag accesses
system.cpu.dcache.tags.data_accesses        266979128                       # Number of data accesses
system.cpu.dcache.tags.power_state.pwrStateResidencyTicks::UNDEFINED  29845716500                       # Cumulative time (in ticks) in various power states
system.cpu.power_state.pwrStateResidencyTicks::ON  29845716500                       # Cumulative time (in ticks) in various power states

---------- End Simulation Statistics   ----------
