
---------- Begin Simulation Statistics ----------
final_tick                               503488692500                       # Number of ticks from beginning of simulation (restored from checkpoints and never reset)
host_inst_rate                                 116456                       # Simulator instruction rate (inst/s)
host_mem_usage                                 864688                       # Number of bytes of host memory used
host_op_rate                                   116887                       # Simulator op (including micro ops) rate (op/s)
host_seconds                                  4293.45                       # Real time elapsed on the host
host_tick_rate                              117268981                       # Simulator tick rate (ticks/s)
sim_freq                                 1000000000000                       # Frequency of simulated ticks
sim_insts                                   500000004                       # Number of instructions simulated
sim_ops                                     501847393                       # Number of ops (including micro ops) simulated
sim_seconds                                  0.503489                       # Number of seconds simulated
sim_ticks                                503488692500                       # Number of ticks simulated
system.cpu.branchPred.BTBCorrect                    0                       # Number of correct BTB predictions (this stat may not work properly.
system.cpu.branchPred.BTBHitPct             99.988603                       # BTB Hit Percentage
system.cpu.branchPred.BTBHits                56333823                       # Number of BTB hits
system.cpu.branchPred.BTBLookups             56340244                       # Number of BTB lookups
system.cpu.branchPred.RASInCorrect                 17                       # Number of incorrect RAS predictions.
system.cpu.branchPred.condIncorrect            426608                       # Number of conditional branches incorrect
system.cpu.branchPred.condPredicted          56764674                       # Number of conditional branches predicted
system.cpu.branchPred.indirectHits               1814                       # Number of indirect target hits.
system.cpu.branchPred.indirectLookups            3308                       # Number of indirect predictor lookups.
system.cpu.branchPred.indirectMisses             1494                       # Number of indirect misses.
system.cpu.branchPred.lookups                56792852                       # Number of BP lookups
system.cpu.branchPred.usedRAS                    9710                       # Number of times the RAS was used to get a target.
system.cpu.branchPredindirectMispredicted          348                       # Number of mispredicted indirect branches.
system.cpu.cc_regfile_reads                 158276616                       # number of cc regfile reads
system.cpu.cc_regfile_writes                158685304                       # number of cc regfile writes
system.cpu.commit.amos                              0                       # Number of atomic instructions committed
system.cpu.commit.branchMispredicts            425263                       # The number of times a branch was mispredicted
system.cpu.commit.branches                   51491625                       # Number of branches committed
system.cpu.commit.bw_lim_events              30418688                       # number cycles where commit BW limit reached
system.cpu.commit.commitNonSpecStalls             215                       # The number of times commit has been forced to stall to communicate backwards
system.cpu.commit.commitSquashedInsts         8809088                       # The number of squashed insts skipped by commit
system.cpu.commit.committedInsts            500254235                       # Number of instructions committed
system.cpu.commit.committedOps              502101624                       # Number of ops (including micro ops) committed
system.cpu.commit.committed_per_cycle::samples   1005462654                       # Number of insts commited each cycle
system.cpu.commit.committed_per_cycle::mean     0.499374                       # Number of insts commited each cycle
system.cpu.commit.committed_per_cycle::stdev     1.653988                       # Number of insts commited each cycle
system.cpu.commit.committed_per_cycle::underflows            0      0.00%      0.00% # Number of insts commited each cycle
system.cpu.commit.committed_per_cycle::0    882229283     87.74%     87.74% # Number of insts commited each cycle
system.cpu.commit.committed_per_cycle::1     37834257      3.76%     91.51% # Number of insts commited each cycle
system.cpu.commit.committed_per_cycle::2     11793180      1.17%     92.68% # Number of insts commited each cycle
system.cpu.commit.committed_per_cycle::3      8752297      0.87%     93.55% # Number of insts commited each cycle
system.cpu.commit.committed_per_cycle::4     17651616      1.76%     95.31% # Number of insts commited each cycle
system.cpu.commit.committed_per_cycle::5      3585907      0.36%     95.66% # Number of insts commited each cycle
system.cpu.commit.committed_per_cycle::6      9843369      0.98%     96.64% # Number of insts commited each cycle
system.cpu.commit.committed_per_cycle::7      3354057      0.33%     96.97% # Number of insts commited each cycle
system.cpu.commit.committed_per_cycle::8     30418688      3.03%    100.00% # Number of insts commited each cycle
system.cpu.commit.committed_per_cycle::overflows            0      0.00%    100.00% # Number of insts commited each cycle
system.cpu.commit.committed_per_cycle::min_value            0                       # Number of insts commited each cycle
system.cpu.commit.committed_per_cycle::max_value            8                       # Number of insts commited each cycle
system.cpu.commit.committed_per_cycle::total   1005462654                       # Number of insts commited each cycle
system.cpu.commit.fp_insts                          0                       # Number of committed floating point instructions.
system.cpu.commit.function_calls                 7363                       # Number of function calls committed.
system.cpu.commit.int_insts                 306778093                       # Number of committed integer instructions.
system.cpu.commit.loads                     123232530                       # Number of loads committed
system.cpu.commit.membars                         164                       # Number of memory barriers committed
system.cpu.commit.op_class_0::No_OpClass           20      0.00%      0.00% # Class of committed instruction
system.cpu.commit.op_class_0::IntAlu        159854327     31.84%     31.84% # Class of committed instruction
system.cpu.commit.op_class_0::IntMult           74054      0.01%     31.85% # Class of committed instruction
system.cpu.commit.op_class_0::IntDiv               97      0.00%     31.85% # Class of committed instruction
system.cpu.commit.op_class_0::FloatAdd       40198138      8.01%     39.86% # Class of committed instruction
system.cpu.commit.op_class_0::FloatCmp         203908      0.04%     39.90% # Class of committed instruction
system.cpu.commit.op_class_0::FloatCvt           3443      0.00%     39.90% # Class of committed instruction
system.cpu.commit.op_class_0::FloatMult      54675947     10.89%     50.79% # Class of committed instruction
system.cpu.commit.op_class_0::FloatMultAcc     35251463      7.02%     57.81% # Class of committed instruction
system.cpu.commit.op_class_0::FloatDiv        9459369      1.88%     59.69% # Class of committed instruction
system.cpu.commit.op_class_0::FloatMisc       2661244      0.53%     60.22% # Class of committed instruction
system.cpu.commit.op_class_0::FloatSqrt       1229043      0.24%     60.47% # Class of committed instruction
system.cpu.commit.op_class_0::SimdAdd              51      0.00%     60.47% # Class of committed instruction
system.cpu.commit.op_class_0::SimdAddAcc            0      0.00%     60.47% # Class of committed instruction
system.cpu.commit.op_class_0::SimdAlu             882      0.00%     60.47% # Class of committed instruction
system.cpu.commit.op_class_0::SimdCmp              80      0.00%     60.47% # Class of committed instruction
system.cpu.commit.op_class_0::SimdCvt               0      0.00%     60.47% # Class of committed instruction
system.cpu.commit.op_class_0::SimdMisc            525      0.00%     60.47% # Class of committed instruction
system.cpu.commit.op_class_0::SimdMult              0      0.00%     60.47% # Class of committed instruction
system.cpu.commit.op_class_0::SimdMultAcc            0      0.00%     60.47% # Class of committed instruction
system.cpu.commit.op_class_0::SimdShift             0      0.00%     60.47% # Class of committed instruction
system.cpu.commit.op_class_0::SimdShiftAcc            0      0.00%     60.47% # Class of committed instruction
system.cpu.commit.op_class_0::SimdDiv               0      0.00%     60.47% # Class of committed instruction
system.cpu.commit.op_class_0::SimdSqrt              0      0.00%     60.47% # Class of committed instruction
system.cpu.commit.op_class_0::SimdFloatAdd            0      0.00%     60.47% # Class of committed instruction
system.cpu.commit.op_class_0::SimdFloatAlu            0      0.00%     60.47% # Class of committed instruction
system.cpu.commit.op_class_0::SimdFloatCmp            0      0.00%     60.47% # Class of committed instruction
system.cpu.commit.op_class_0::SimdFloatCvt            0      0.00%     60.47% # Class of committed instruction
system.cpu.commit.op_class_0::SimdFloatDiv            0      0.00%     60.47% # Class of committed instruction
system.cpu.commit.op_class_0::SimdFloatMisc            0      0.00%     60.47% # Class of committed instruction
system.cpu.commit.op_class_0::SimdFloatMult            0      0.00%     60.47% # Class of committed instruction
system.cpu.commit.op_class_0::SimdFloatMultAcc            0      0.00%     60.47% # Class of committed instruction
system.cpu.commit.op_class_0::SimdFloatSqrt            0      0.00%     60.47% # Class of committed instruction
system.cpu.commit.op_class_0::SimdReduceAdd            0      0.00%     60.47% # Class of committed instruction
system.cpu.commit.op_class_0::SimdReduceAlu            0      0.00%     60.47% # Class of committed instruction
system.cpu.commit.op_class_0::SimdReduceCmp            0      0.00%     60.47% # Class of committed instruction
system.cpu.commit.op_class_0::SimdFloatReduceAdd            0      0.00%     60.47% # Class of committed instruction
system.cpu.commit.op_class_0::SimdFloatReduceCmp            0      0.00%     60.47% # Class of committed instruction
system.cpu.commit.op_class_0::SimdAes               0      0.00%     60.47% # Class of committed instruction
system.cpu.commit.op_class_0::SimdAesMix            0      0.00%     60.47% # Class of committed instruction
system.cpu.commit.op_class_0::SimdSha1Hash            0      0.00%     60.47% # Class of committed instruction
system.cpu.commit.op_class_0::SimdSha1Hash2            0      0.00%     60.47% # Class of committed instruction
system.cpu.commit.op_class_0::SimdSha256Hash            0      0.00%     60.47% # Class of committed instruction
system.cpu.commit.op_class_0::SimdSha256Hash2            0      0.00%     60.47% # Class of committed instruction
system.cpu.commit.op_class_0::SimdShaSigma2            0      0.00%     60.47% # Class of committed instruction
system.cpu.commit.op_class_0::SimdShaSigma3            0      0.00%     60.47% # Class of committed instruction
system.cpu.commit.op_class_0::SimdPredAlu            0      0.00%     60.47% # Class of committed instruction
system.cpu.commit.op_class_0::MemRead       123232530     24.54%     85.01% # Class of committed instruction
system.cpu.commit.op_class_0::MemWrite       75256503     14.99%    100.00% # Class of committed instruction
system.cpu.commit.op_class_0::FloatMemRead            0      0.00%    100.00% # Class of committed instruction
system.cpu.commit.op_class_0::FloatMemWrite            0      0.00%    100.00% # Class of committed instruction
system.cpu.commit.op_class_0::IprAccess             0      0.00%    100.00% # Class of committed instruction
system.cpu.commit.op_class_0::InstPrefetch            0      0.00%    100.00% # Class of committed instruction
system.cpu.commit.op_class_0::total         502101624                       # Class of committed instruction
system.cpu.commit.refs                      198489033                       # Number of memory references committed
system.cpu.commit.swp_count                         0                       # Number of s/w prefetches committed
system.cpu.commit.vec_insts                 313431179                       # Number of committed Vector instructions.
system.cpu.committedInsts                   500000004                       # Number of Instructions Simulated
system.cpu.committedOps                     501847393                       # Number of Ops (including micro ops) Simulated
system.cpu.cpi                               2.013955                       # CPI: Cycles Per Instruction
system.cpu.cpi_total                         2.013955                       # CPI: Total CPI of All Threads
system.cpu.decode.BlockedCycles             913285311                       # Number of cycles decode is blocked
system.cpu.decode.BranchMispred                  1408                       # Number of times decode detected a branch misprediction
system.cpu.decode.BranchResolved             53868455                       # Number of times decode resolved a branch
system.cpu.decode.DecodedInsts              517422328                       # Number of instructions handled by decode
system.cpu.decode.IdleCycles                 21653375                       # Number of cycles decode is idle
system.cpu.decode.RunCycles                  43533563                       # Number of cycles decode is running
system.cpu.decode.SquashCycles                 459628                       # Number of cycles decode is squashing
system.cpu.decode.SquashedInsts                  5397                       # Number of squashed instructions handled by decode
system.cpu.decode.UnblockCycles              27852006                       # Number of cycles decode is unblocking
system.cpu.dtb.accesses                             0                       # DTB accesses
system.cpu.dtb.align_faults                         0                       # Number of TLB faults due to alignment restrictions
system.cpu.dtb.domain_faults                        0                       # Number of TLB faults due to domain restrictions
system.cpu.dtb.flush_entries                        0                       # Number of entries that have been flushed from TLB
system.cpu.dtb.flush_tlb                            2                       # Number of times complete TLB was flushed
system.cpu.dtb.flush_tlb_asid                       0                       # Number of times TLB was flushed by ASID
system.cpu.dtb.flush_tlb_mva                        0                       # Number of times TLB was flushed by MVA
system.cpu.dtb.flush_tlb_mva_asid                   0                       # Number of times TLB was flushed by MVA & ASID
system.cpu.dtb.hits                                 0                       # DTB hits
system.cpu.dtb.inst_accesses                        0                       # ITB inst accesses
system.cpu.dtb.inst_hits                            0                       # ITB inst hits
system.cpu.dtb.inst_misses                          0                       # ITB inst misses
system.cpu.dtb.misses                               0                       # DTB misses
system.cpu.dtb.perms_faults                         0                       # Number of TLB faults due to permissions restrictions
system.cpu.dtb.prefetch_faults                      0                       # Number of TLB faults due to prefetch
system.cpu.dtb.read_accesses                        0                       # DTB read accesses
system.cpu.dtb.read_hits                            0                       # DTB read hits
system.cpu.dtb.read_misses                          0                       # DTB read misses
system.cpu.dtb.stage2_mmu.stage2_tlb.accesses            0                       # DTB accesses
system.cpu.dtb.stage2_mmu.stage2_tlb.align_faults            0                       # Number of TLB faults due to alignment restrictions
system.cpu.dtb.stage2_mmu.stage2_tlb.domain_faults            0                       # Number of TLB faults due to domain restrictions
system.cpu.dtb.stage2_mmu.stage2_tlb.flush_entries            0                       # Number of entries that have been flushed from TLB
system.cpu.dtb.stage2_mmu.stage2_tlb.flush_tlb            0                       # Number of times complete TLB was flushed
system.cpu.dtb.stage2_mmu.stage2_tlb.flush_tlb_asid            0                       # Number of times TLB was flushed by ASID
system.cpu.dtb.stage2_mmu.stage2_tlb.flush_tlb_mva            0                       # Number of times TLB was flushed by MVA
system.cpu.dtb.stage2_mmu.stage2_tlb.flush_tlb_mva_asid            0                       # Number of times TLB was flushed by MVA & ASID
system.cpu.dtb.stage2_mmu.stage2_tlb.hits            0                       # DTB hits
system.cpu.dtb.stage2_mmu.stage2_tlb.inst_accesses            0                       # ITB inst accesses
system.cpu.dtb.stage2_mmu.stage2_tlb.inst_hits            0                       # ITB inst hits
system.cpu.dtb.stage2_mmu.stage2_tlb.inst_misses            0                       # ITB inst misses
system.cpu.dtb.stage2_mmu.stage2_tlb.misses            0                       # DTB misses
system.cpu.dtb.stage2_mmu.stage2_tlb.perms_faults            0                       # Number of TLB faults due to permissions restrictions
system.cpu.dtb.stage2_mmu.stage2_tlb.prefetch_faults            0                       # Number of TLB faults due to prefetch
system.cpu.dtb.stage2_mmu.stage2_tlb.read_accesses            0                       # DTB read accesses
system.cpu.dtb.stage2_mmu.stage2_tlb.read_hits            0                       # DTB read hits
system.cpu.dtb.stage2_mmu.stage2_tlb.read_misses            0                       # DTB read misses
system.cpu.dtb.stage2_mmu.stage2_tlb.walker.walkRequestOrigin_Requested::Data            0                       # Table walker requests started/completed, data/inst
system.cpu.dtb.stage2_mmu.stage2_tlb.walker.walkRequestOrigin_Requested::Inst            0                       # Table walker requests started/completed, data/inst
system.cpu.dtb.stage2_mmu.stage2_tlb.walker.walkRequestOrigin_Requested::total            0                       # Table walker requests started/completed, data/inst
system.cpu.dtb.stage2_mmu.stage2_tlb.walker.walkRequestOrigin_Completed::Data            0                       # Table walker requests started/completed, data/inst
system.cpu.dtb.stage2_mmu.stage2_tlb.walker.walkRequestOrigin_Completed::Inst            0                       # Table walker requests started/completed, data/inst
system.cpu.dtb.stage2_mmu.stage2_tlb.walker.walkRequestOrigin_Completed::total            0                       # Table walker requests started/completed, data/inst
system.cpu.dtb.stage2_mmu.stage2_tlb.walker.walkRequestOrigin::total            0                       # Table walker requests started/completed, data/inst
system.cpu.dtb.stage2_mmu.stage2_tlb.walker.walks            0                       # Table walker walks requested
system.cpu.dtb.stage2_mmu.stage2_tlb.write_accesses            0                       # DTB write accesses
system.cpu.dtb.stage2_mmu.stage2_tlb.write_hits            0                       # DTB write hits
system.cpu.dtb.stage2_mmu.stage2_tlb.write_misses            0                       # DTB write misses
system.cpu.dtb.walker.walkRequestOrigin_Requested::Data            0                       # Table walker requests started/completed, data/inst
system.cpu.dtb.walker.walkRequestOrigin_Requested::Inst            0                       # Table walker requests started/completed, data/inst
system.cpu.dtb.walker.walkRequestOrigin_Requested::total            0                       # Table walker requests started/completed, data/inst
system.cpu.dtb.walker.walkRequestOrigin_Completed::Data            0                       # Table walker requests started/completed, data/inst
system.cpu.dtb.walker.walkRequestOrigin_Completed::Inst            0                       # Table walker requests started/completed, data/inst
system.cpu.dtb.walker.walkRequestOrigin_Completed::total            0                       # Table walker requests started/completed, data/inst
system.cpu.dtb.walker.walkRequestOrigin::total            0                       # Table walker requests started/completed, data/inst
system.cpu.dtb.walker.walks                         0                       # Table walker walks requested
system.cpu.dtb.write_accesses                       0                       # DTB write accesses
system.cpu.dtb.write_hits                           0                       # DTB write hits
system.cpu.dtb.write_misses                         0                       # DTB write misses
system.cpu.fetch.Branches                    56792852                       # Number of branches that fetch encountered
system.cpu.fetch.CacheLines                  45625096                       # Number of cache lines fetched
system.cpu.fetch.Cycles                     960578745                       # Number of cycles fetch has run and was not squashing or blocked
system.cpu.fetch.IcacheSquashes                 69694                       # Number of outstanding Icache misses that were squashed
system.cpu.fetch.IcacheWaitRetryStallCycles           73                       # Number of stall cycles due to full MSHR
system.cpu.fetch.Insts                      529481756                       # Number of instructions fetch has processed
system.cpu.fetch.MiscStallCycles                  128                       # Number of cycles fetch has spent waiting on interrupts, or bad addresses, or out of MSHRs
system.cpu.fetch.PendingTrapStallCycles           132                       # Number of stall cycles due to pending traps
system.cpu.fetch.SquashCycles                  921990                       # Number of cycles fetch has spent squashing
system.cpu.fetch.branchRate                  0.056399                       # Number of branch fetches per cycle
system.cpu.fetch.icacheStallCycles           45743810                       # Number of cycles fetch is stalled on an Icache miss
system.cpu.fetch.predictedBranches           56345347                       # Number of branches that fetch has predicted taken
system.cpu.fetch.rate                        0.525813                       # Number of inst fetches per cycle
system.cpu.fetch.rateDist::samples         1006783883                       # Number of instructions fetched each cycle (Total)
system.cpu.fetch.rateDist::mean              0.527839                       # Number of instructions fetched each cycle (Total)
system.cpu.fetch.rateDist::stdev             1.696626                       # Number of instructions fetched each cycle (Total)
system.cpu.fetch.rateDist::underflows               0      0.00%      0.00% # Number of instructions fetched each cycle (Total)
system.cpu.fetch.rateDist::0                901484055     89.54%     89.54% # Number of instructions fetched each cycle (Total)
system.cpu.fetch.rateDist::1                  4626361      0.46%     90.00% # Number of instructions fetched each cycle (Total)
system.cpu.fetch.rateDist::2                  9349884      0.93%     90.93% # Number of instructions fetched each cycle (Total)
system.cpu.fetch.rateDist::3                  8515349      0.85%     91.77% # Number of instructions fetched each cycle (Total)
system.cpu.fetch.rateDist::4                 34909461      3.47%     95.24% # Number of instructions fetched each cycle (Total)
system.cpu.fetch.rateDist::5                  3581284      0.36%     95.60% # Number of instructions fetched each cycle (Total)
system.cpu.fetch.rateDist::6                  9276291      0.92%     96.52% # Number of instructions fetched each cycle (Total)
system.cpu.fetch.rateDist::7                 10984053      1.09%     97.61% # Number of instructions fetched each cycle (Total)
system.cpu.fetch.rateDist::8                 24057145      2.39%    100.00% # Number of instructions fetched each cycle (Total)
system.cpu.fetch.rateDist::overflows                0      0.00%    100.00% # Number of instructions fetched each cycle (Total)
system.cpu.fetch.rateDist::min_value                0                       # Number of instructions fetched each cycle (Total)
system.cpu.fetch.rateDist::max_value                8                       # Number of instructions fetched each cycle (Total)
system.cpu.fetch.rateDist::total           1006783883                       # Number of instructions fetched each cycle (Total)
system.cpu.idleCycles                          193504                       # Total number of cycles that the CPU has spent unscheduled due to idling
system.cpu.iew.branchMispredicts               536519                       # Number of branch mispredicts detected at execute
system.cpu.iew.exec_branches                 52832147                       # Number of branches executed
system.cpu.iew.exec_nop                        262325                       # number of nop insts executed
system.cpu.iew.exec_rate                     0.594212                       # Inst execution rate
system.cpu.iew.exec_refs                    290524663                       # number of memory reference insts executed
system.cpu.iew.exec_stores                   76793435                       # Number of stores executed
system.cpu.iew.exec_swp                             0                       # number of swp insts executed
system.cpu.iew.iewBlockCycles               189635019                       # Number of cycles IEW is blocking
system.cpu.iew.iewDispLoadInsts             124282295                       # Number of dispatched load instructions
system.cpu.iew.iewDispNonSpecInsts                277                       # Number of dispatched non-speculative instructions
system.cpu.iew.iewDispSquashedInsts            263661                       # Number of squashed instructions skipped by dispatch
system.cpu.iew.iewDispStoreInsts             77359415                       # Number of dispatched store instructions
system.cpu.iew.iewDispatchedInsts           511748268                       # Number of instructions dispatched to IQ
system.cpu.iew.iewExecLoadInsts             213731228                       # Number of load instructions executed
system.cpu.iew.iewExecSquashedInsts            629902                       # Number of squashed instructions skipped in execute
system.cpu.iew.iewExecutedInsts             598358246                       # Number of executed instructions
system.cpu.iew.iewIQFullEvents                1699510                       # Number of times the IQ has become full, causing a stall
system.cpu.iew.iewIdleCycles                        0                       # Number of cycles IEW is idle
system.cpu.iew.iewLSQFullEvents             134135257                       # Number of times the LSQ has become full, causing a stall
system.cpu.iew.iewSquashCycles                 459628                       # Number of cycles IEW is squashing
system.cpu.iew.iewUnblockCycles             137337581                       # Number of cycles IEW is unblocking
system.cpu.iew.lsq.thread0.blockedLoads             0                       # Number of blocked loads due to partial load-store forwarding
system.cpu.iew.lsq.thread0.cacheBlocked       8554028                       # Number of times an access to memory failed due to the cache being blocked
system.cpu.iew.lsq.thread0.forwLoads          2411895                       # Number of loads that had data forwarded from stores
system.cpu.iew.lsq.thread0.ignoredResponses           43                       # Number of memory responses ignored because the instruction is squashed
system.cpu.iew.lsq.thread0.invAddrLoads             0                       # Number of loads ignored due to an invalid address
system.cpu.iew.lsq.thread0.invAddrSwpfs             0                       # Number of software prefetches ignored due to an invalid address
system.cpu.iew.lsq.thread0.memOrderViolation         3896                       # Number of memory ordering violations
system.cpu.iew.lsq.thread0.rescheduledLoads         5365                       # Number of loads that were rescheduled
system.cpu.iew.lsq.thread0.squashedLoads      1049740                       # Number of loads squashed
system.cpu.iew.lsq.thread0.squashedStores      2102904                       # Number of stores squashed
system.cpu.iew.memOrderViolationEvents           3896                       # Number of memory order violations
system.cpu.iew.predictedNotTakenIncorrect         4191                       # Number of branches that were predicted not taken incorrectly
system.cpu.iew.predictedTakenIncorrect         532328                       # Number of branches that were predicted taken incorrectly
system.cpu.iew.wb_consumers                 562877079                       # num instructions consuming a value
system.cpu.iew.wb_count                     507142861                       # cumulative count of insts written-back
system.cpu.iew.wb_fanout                     0.631561                       # average fanout of values written-back
system.cpu.iew.wb_producers                 355491313                       # num instructions producing a value
system.cpu.iew.wb_rate                       0.503629                       # insts written-back per cycle
system.cpu.iew.wb_sent                      508056796                       # cumulative count of insts sent to commit
system.cpu.int_regfile_reads                752383087                       # number of integer regfile reads
system.cpu.int_regfile_writes               112345043                       # number of integer regfile writes
system.cpu.ipc                               0.496535                       # IPC: Instructions Per Cycle
system.cpu.ipc_total                         0.496535                       # IPC: Total IPC of All Threads
system.cpu.iq.FU_type_0::No_OpClass                46      0.00%      0.00% # Type of FU issued
system.cpu.iq.FU_type_0::IntAlu             164370831     27.44%     27.44% # Type of FU issued
system.cpu.iq.FU_type_0::IntMult                74669      0.01%     27.45% # Type of FU issued
system.cpu.iq.FU_type_0::IntDiv                   101      0.00%     27.45% # Type of FU issued
system.cpu.iq.FU_type_0::FloatAdd            40199623      6.71%     34.17% # Type of FU issued
system.cpu.iq.FU_type_0::FloatCmp              204094      0.03%     34.20% # Type of FU issued
system.cpu.iq.FU_type_0::FloatCvt                3595      0.00%     34.20% # Type of FU issued
system.cpu.iq.FU_type_0::FloatMult           54690693      9.13%     43.33% # Type of FU issued
system.cpu.iq.FU_type_0::FloatMultAcc        35252798      5.89%     49.22% # Type of FU issued
system.cpu.iq.FU_type_0::FloatDiv             9459536      1.58%     50.79% # Type of FU issued
system.cpu.iq.FU_type_0::FloatMisc            2666656      0.45%     51.24% # Type of FU issued
system.cpu.iq.FU_type_0::FloatSqrt            1229044      0.21%     51.45% # Type of FU issued
system.cpu.iq.FU_type_0::SimdAdd                   59      0.00%     51.45% # Type of FU issued
system.cpu.iq.FU_type_0::SimdAddAcc                 0      0.00%     51.45% # Type of FU issued
system.cpu.iq.FU_type_0::SimdAlu                  890      0.00%     51.45% # Type of FU issued
system.cpu.iq.FU_type_0::SimdCmp                   90      0.00%     51.45% # Type of FU issued
system.cpu.iq.FU_type_0::SimdCvt                    0      0.00%     51.45% # Type of FU issued
system.cpu.iq.FU_type_0::SimdMisc                 603      0.00%     51.45% # Type of FU issued
system.cpu.iq.FU_type_0::SimdMult                   0      0.00%     51.45% # Type of FU issued
system.cpu.iq.FU_type_0::SimdMultAcc                0      0.00%     51.45% # Type of FU issued
system.cpu.iq.FU_type_0::SimdShift                  0      0.00%     51.45% # Type of FU issued
system.cpu.iq.FU_type_0::SimdShiftAcc               0      0.00%     51.45% # Type of FU issued
system.cpu.iq.FU_type_0::SimdDiv                    0      0.00%     51.45% # Type of FU issued
system.cpu.iq.FU_type_0::SimdSqrt                   0      0.00%     51.45% # Type of FU issued
system.cpu.iq.FU_type_0::SimdFloatAdd               0      0.00%     51.45% # Type of FU issued
system.cpu.iq.FU_type_0::SimdFloatAlu               0      0.00%     51.45% # Type of FU issued
system.cpu.iq.FU_type_0::SimdFloatCmp               0      0.00%     51.45% # Type of FU issued
system.cpu.iq.FU_type_0::SimdFloatCvt               0      0.00%     51.45% # Type of FU issued
system.cpu.iq.FU_type_0::SimdFloatDiv               0      0.00%     51.45% # Type of FU issued
system.cpu.iq.FU_type_0::SimdFloatMisc              0      0.00%     51.45% # Type of FU issued
system.cpu.iq.FU_type_0::SimdFloatMult              0      0.00%     51.45% # Type of FU issued
system.cpu.iq.FU_type_0::SimdFloatMultAcc            0      0.00%     51.45% # Type of FU issued
system.cpu.iq.FU_type_0::SimdFloatSqrt              0      0.00%     51.45% # Type of FU issued
system.cpu.iq.FU_type_0::SimdReduceAdd              0      0.00%     51.45% # Type of FU issued
system.cpu.iq.FU_type_0::SimdReduceAlu              0      0.00%     51.45% # Type of FU issued
system.cpu.iq.FU_type_0::SimdReduceCmp              0      0.00%     51.45% # Type of FU issued
system.cpu.iq.FU_type_0::SimdFloatReduceAdd            0      0.00%     51.45% # Type of FU issued
system.cpu.iq.FU_type_0::SimdFloatReduceCmp            0      0.00%     51.45% # Type of FU issued
system.cpu.iq.FU_type_0::SimdAes                    0      0.00%     51.45% # Type of FU issued
system.cpu.iq.FU_type_0::SimdAesMix                 0      0.00%     51.45% # Type of FU issued
system.cpu.iq.FU_type_0::SimdSha1Hash               0      0.00%     51.45% # Type of FU issued
system.cpu.iq.FU_type_0::SimdSha1Hash2              0      0.00%     51.45% # Type of FU issued
system.cpu.iq.FU_type_0::SimdSha256Hash             0      0.00%     51.45% # Type of FU issued
system.cpu.iq.FU_type_0::SimdSha256Hash2            0      0.00%     51.45% # Type of FU issued
system.cpu.iq.FU_type_0::SimdShaSigma2              0      0.00%     51.45% # Type of FU issued
system.cpu.iq.FU_type_0::SimdShaSigma3              0      0.00%     51.45% # Type of FU issued
system.cpu.iq.FU_type_0::SimdPredAlu                0      0.00%     51.45% # Type of FU issued
system.cpu.iq.FU_type_0::MemRead            213915898     35.71%     87.16% # Type of FU issued
system.cpu.iq.FU_type_0::MemWrite            76918923     12.84%    100.00% # Type of FU issued
system.cpu.iq.FU_type_0::FloatMemRead               0      0.00%    100.00% # Type of FU issued
system.cpu.iq.FU_type_0::FloatMemWrite              0      0.00%    100.00% # Type of FU issued
system.cpu.iq.FU_type_0::IprAccess                  0      0.00%    100.00% # Type of FU issued
system.cpu.iq.FU_type_0::InstPrefetch               0      0.00%    100.00% # Type of FU issued
system.cpu.iq.FU_type_0::total              598988149                       # Type of FU issued
system.cpu.iq.fp_alu_accesses                       0                       # Number of floating point alu accesses
system.cpu.iq.fp_inst_queue_reads                   0                       # Number of floating instruction queue reads
system.cpu.iq.fp_inst_queue_wakeup_accesses            0                       # Number of floating instruction queue wakeup accesses
system.cpu.iq.fp_inst_queue_writes                  0                       # Number of floating instruction queue writes
system.cpu.iq.fu_busy_cnt                   143817535                       # FU busy when requested
system.cpu.iq.fu_busy_rate                   0.240101                       # FU busy rate (busy events/executed inst)
system.cpu.iq.fu_full::No_OpClass                   0      0.00%      0.00% # attempts to use FU when none available
system.cpu.iq.fu_full::IntAlu                   26911      0.02%      0.02% # attempts to use FU when none available
system.cpu.iq.fu_full::IntMult                    109      0.00%      0.02% # attempts to use FU when none available
system.cpu.iq.fu_full::IntDiv                       0      0.00%      0.02% # attempts to use FU when none available
system.cpu.iq.fu_full::FloatAdd                253043      0.18%      0.19% # attempts to use FU when none available
system.cpu.iq.fu_full::FloatCmp                     0      0.00%      0.19% # attempts to use FU when none available
system.cpu.iq.fu_full::FloatCvt                     0      0.00%      0.19% # attempts to use FU when none available
system.cpu.iq.fu_full::FloatMult             44602893     31.01%     31.21% # attempts to use FU when none available
system.cpu.iq.fu_full::FloatMultAcc          10922261      7.59%     38.80% # attempts to use FU when none available
system.cpu.iq.fu_full::FloatDiv              34671135     24.11%     62.91% # attempts to use FU when none available
system.cpu.iq.fu_full::FloatMisc             11851968      8.24%     71.15% # attempts to use FU when none available
system.cpu.iq.fu_full::FloatSqrt             15600715     10.85%     82.00% # attempts to use FU when none available
system.cpu.iq.fu_full::SimdAdd                      0      0.00%     82.00% # attempts to use FU when none available
system.cpu.iq.fu_full::SimdAddAcc                   0      0.00%     82.00% # attempts to use FU when none available
system.cpu.iq.fu_full::SimdAlu                      1      0.00%     82.00% # attempts to use FU when none available
system.cpu.iq.fu_full::SimdCmp                      2      0.00%     82.00% # attempts to use FU when none available
system.cpu.iq.fu_full::SimdCvt                      0      0.00%     82.00% # attempts to use FU when none available
system.cpu.iq.fu_full::SimdMisc                     0      0.00%     82.00% # attempts to use FU when none available
system.cpu.iq.fu_full::SimdMult                     0      0.00%     82.00% # attempts to use FU when none available
system.cpu.iq.fu_full::SimdMultAcc                  0      0.00%     82.00% # attempts to use FU when none available
system.cpu.iq.fu_full::SimdShift                    0      0.00%     82.00% # attempts to use FU when none available
system.cpu.iq.fu_full::SimdShiftAcc                 0      0.00%     82.00% # attempts to use FU when none available
system.cpu.iq.fu_full::SimdDiv                      0      0.00%     82.00% # attempts to use FU when none available
system.cpu.iq.fu_full::SimdSqrt                     0      0.00%     82.00% # attempts to use FU when none available
system.cpu.iq.fu_full::SimdFloatAdd                 0      0.00%     82.00% # attempts to use FU when none available
system.cpu.iq.fu_full::SimdFloatAlu                 0      0.00%     82.00% # attempts to use FU when none available
system.cpu.iq.fu_full::SimdFloatCmp                 0      0.00%     82.00% # attempts to use FU when none available
system.cpu.iq.fu_full::SimdFloatCvt                 0      0.00%     82.00% # attempts to use FU when none available
system.cpu.iq.fu_full::SimdFloatDiv                 0      0.00%     82.00% # attempts to use FU when none available
system.cpu.iq.fu_full::SimdFloatMisc                0      0.00%     82.00% # attempts to use FU when none available
system.cpu.iq.fu_full::SimdFloatMult                0      0.00%     82.00% # attempts to use FU when none available
system.cpu.iq.fu_full::SimdFloatMultAcc             0      0.00%     82.00% # attempts to use FU when none available
system.cpu.iq.fu_full::SimdFloatSqrt                0      0.00%     82.00% # attempts to use FU when none available
system.cpu.iq.fu_full::SimdReduceAdd                0      0.00%     82.00% # attempts to use FU when none available
system.cpu.iq.fu_full::SimdReduceAlu                0      0.00%     82.00% # attempts to use FU when none available
system.cpu.iq.fu_full::SimdReduceCmp                0      0.00%     82.00% # attempts to use FU when none available
system.cpu.iq.fu_full::SimdFloatReduceAdd            0      0.00%     82.00% # attempts to use FU when none available
system.cpu.iq.fu_full::SimdFloatReduceCmp            0      0.00%     82.00% # attempts to use FU when none available
system.cpu.iq.fu_full::SimdAes                      0      0.00%     82.00% # attempts to use FU when none available
system.cpu.iq.fu_full::SimdAesMix                   0      0.00%     82.00% # attempts to use FU when none available
system.cpu.iq.fu_full::SimdSha1Hash                 0      0.00%     82.00% # attempts to use FU when none available
system.cpu.iq.fu_full::SimdSha1Hash2                0      0.00%     82.00% # attempts to use FU when none available
system.cpu.iq.fu_full::SimdSha256Hash               0      0.00%     82.00% # attempts to use FU when none available
system.cpu.iq.fu_full::SimdSha256Hash2              0      0.00%     82.00% # attempts to use FU when none available
system.cpu.iq.fu_full::SimdShaSigma2                0      0.00%     82.00% # attempts to use FU when none available
system.cpu.iq.fu_full::SimdShaSigma3                0      0.00%     82.00% # attempts to use FU when none available
system.cpu.iq.fu_full::SimdPredAlu                  0      0.00%     82.00% # attempts to use FU when none available
system.cpu.iq.fu_full::MemRead               25211947     17.53%     99.53% # attempts to use FU when none available
system.cpu.iq.fu_full::MemWrite                676550      0.47%    100.00% # attempts to use FU when none available
system.cpu.iq.fu_full::FloatMemRead                 0      0.00%    100.00% # attempts to use FU when none available
system.cpu.iq.fu_full::FloatMemWrite                0      0.00%    100.00% # attempts to use FU when none available
system.cpu.iq.fu_full::IprAccess                    0      0.00%    100.00% # attempts to use FU when none available
system.cpu.iq.fu_full::InstPrefetch                 0      0.00%    100.00% # attempts to use FU when none available
system.cpu.iq.int_alu_accesses              196368887                       # Number of integer alu accesses
system.cpu.iq.int_inst_queue_reads         1398906943                       # Number of integer instruction queue reads
system.cpu.iq.int_inst_queue_wakeup_accesses    193610313                       # Number of integer instruction queue wakeup accesses
system.cpu.iq.int_inst_queue_writes         203504349                       # Number of integer instruction queue writes
system.cpu.iq.iqInstsAdded                  511485666                       # Number of instructions added to the IQ (excludes non-spec)
system.cpu.iq.iqInstsIssued                 598988149                       # Number of instructions issued
system.cpu.iq.iqNonSpecInstsAdded                 277                       # Number of non-speculative instructions added to the IQ
system.cpu.iq.iqSquashedInstsExamined         9638473                       # Number of squashed instructions iterated over during squash; mainly for profiling
system.cpu.iq.iqSquashedInstsIssued            220488                       # Number of squashed instructions issued
system.cpu.iq.iqSquashedNonSpecRemoved             62                       # Number of squashed non-spec instructions that were removed
system.cpu.iq.iqSquashedOperandsExamined     13532526                       # Number of squashed operands that are examined and possibly removed from graph
system.cpu.iq.issued_per_cycle::samples    1006783883                       # Number of insts issued each cycle
system.cpu.iq.issued_per_cycle::mean         0.594952                       # Number of insts issued each cycle
system.cpu.iq.issued_per_cycle::stdev        1.334158                       # Number of insts issued each cycle
system.cpu.iq.issued_per_cycle::underflows            0      0.00%      0.00% # Number of insts issued each cycle
system.cpu.iq.issued_per_cycle::0           775961623     77.07%     77.07% # Number of insts issued each cycle
system.cpu.iq.issued_per_cycle::1            79293469      7.88%     84.95% # Number of insts issued each cycle
system.cpu.iq.issued_per_cycle::2            52355210      5.20%     90.15% # Number of insts issued each cycle
system.cpu.iq.issued_per_cycle::3            28432490      2.82%     92.97% # Number of insts issued each cycle
system.cpu.iq.issued_per_cycle::4            42928577      4.26%     97.24% # Number of insts issued each cycle
system.cpu.iq.issued_per_cycle::5            14684638      1.46%     98.70% # Number of insts issued each cycle
system.cpu.iq.issued_per_cycle::6             8381214      0.83%     99.53% # Number of insts issued each cycle
system.cpu.iq.issued_per_cycle::7             3711288      0.37%     99.90% # Number of insts issued each cycle
system.cpu.iq.issued_per_cycle::8             1035374      0.10%    100.00% # Number of insts issued each cycle
system.cpu.iq.issued_per_cycle::overflows            0      0.00%    100.00% # Number of insts issued each cycle
system.cpu.iq.issued_per_cycle::min_value            0                       # Number of insts issued each cycle
system.cpu.iq.issued_per_cycle::max_value            8                       # Number of insts issued each cycle
system.cpu.iq.issued_per_cycle::total      1006783883                       # Number of insts issued each cycle
system.cpu.iq.rate                           0.594838                       # Inst issue rate
system.cpu.iq.vec_alu_accesses              546436751                       # Number of vector alu accesses
system.cpu.iq.vec_inst_queue_reads          949891260                       # Number of vector instruction queue reads
system.cpu.iq.vec_inst_queue_wakeup_accesses    313532548                       # Number of vector instruction queue wakeup accesses
system.cpu.iq.vec_inst_queue_writes         317623802                       # Number of vector instruction queue writes
system.cpu.itb.accesses                             0                       # DTB accesses
system.cpu.itb.align_faults                         0                       # Number of TLB faults due to alignment restrictions
system.cpu.itb.domain_faults                        0                       # Number of TLB faults due to domain restrictions
system.cpu.itb.flush_entries                        0                       # Number of entries that have been flushed from TLB
system.cpu.itb.flush_tlb                            2                       # Number of times complete TLB was flushed
system.cpu.itb.flush_tlb_asid                       0                       # Number of times TLB was flushed by ASID
system.cpu.itb.flush_tlb_mva                        0                       # Number of times TLB was flushed by MVA
system.cpu.itb.flush_tlb_mva_asid                   0                       # Number of times TLB was flushed by MVA & ASID
system.cpu.itb.hits                                 0                       # DTB hits
system.cpu.itb.inst_accesses                        0                       # ITB inst accesses
system.cpu.itb.inst_hits                            0                       # ITB inst hits
system.cpu.itb.inst_misses                          0                       # ITB inst misses
system.cpu.itb.misses                               0                       # DTB misses
system.cpu.itb.perms_faults                         0                       # Number of TLB faults due to permissions restrictions
system.cpu.itb.prefetch_faults                      0                       # Number of TLB faults due to prefetch
system.cpu.itb.read_accesses                        0                       # DTB read accesses
system.cpu.itb.read_hits                            0                       # DTB read hits
system.cpu.itb.read_misses                          0                       # DTB read misses
system.cpu.itb.stage2_mmu.stage2_tlb.accesses            0                       # DTB accesses
system.cpu.itb.stage2_mmu.stage2_tlb.align_faults            0                       # Number of TLB faults due to alignment restrictions
system.cpu.itb.stage2_mmu.stage2_tlb.domain_faults            0                       # Number of TLB faults due to domain restrictions
system.cpu.itb.stage2_mmu.stage2_tlb.flush_entries            0                       # Number of entries that have been flushed from TLB
system.cpu.itb.stage2_mmu.stage2_tlb.flush_tlb            0                       # Number of times complete TLB was flushed
system.cpu.itb.stage2_mmu.stage2_tlb.flush_tlb_asid            0                       # Number of times TLB was flushed by ASID
system.cpu.itb.stage2_mmu.stage2_tlb.flush_tlb_mva            0                       # Number of times TLB was flushed by MVA
system.cpu.itb.stage2_mmu.stage2_tlb.flush_tlb_mva_asid            0                       # Number of times TLB was flushed by MVA & ASID
system.cpu.itb.stage2_mmu.stage2_tlb.hits            0                       # DTB hits
system.cpu.itb.stage2_mmu.stage2_tlb.inst_accesses            0                       # ITB inst accesses
system.cpu.itb.stage2_mmu.stage2_tlb.inst_hits            0                       # ITB inst hits
system.cpu.itb.stage2_mmu.stage2_tlb.inst_misses            0                       # ITB inst misses
system.cpu.itb.stage2_mmu.stage2_tlb.misses            0                       # DTB misses
system.cpu.itb.stage2_mmu.stage2_tlb.perms_faults            0                       # Number of TLB faults due to permissions restrictions
system.cpu.itb.stage2_mmu.stage2_tlb.prefetch_faults            0                       # Number of TLB faults due to prefetch
system.cpu.itb.stage2_mmu.stage2_tlb.read_accesses            0                       # DTB read accesses
system.cpu.itb.stage2_mmu.stage2_tlb.read_hits            0                       # DTB read hits
system.cpu.itb.stage2_mmu.stage2_tlb.read_misses            0                       # DTB read misses
system.cpu.itb.stage2_mmu.stage2_tlb.walker.walkRequestOrigin_Requested::Data            0                       # Table walker requests started/completed, data/inst
system.cpu.itb.stage2_mmu.stage2_tlb.walker.walkRequestOrigin_Requested::Inst            0                       # Table walker requests started/completed, data/inst
system.cpu.itb.stage2_mmu.stage2_tlb.walker.walkRequestOrigin_Requested::total            0                       # Table walker requests started/completed, data/inst
system.cpu.itb.stage2_mmu.stage2_tlb.walker.walkRequestOrigin_Completed::Data            0                       # Table walker requests started/completed, data/inst
system.cpu.itb.stage2_mmu.stage2_tlb.walker.walkRequestOrigin_Completed::Inst            0                       # Table walker requests started/completed, data/inst
system.cpu.itb.stage2_mmu.stage2_tlb.walker.walkRequestOrigin_Completed::total            0                       # Table walker requests started/completed, data/inst
system.cpu.itb.stage2_mmu.stage2_tlb.walker.walkRequestOrigin::total            0                       # Table walker requests started/completed, data/inst
system.cpu.itb.stage2_mmu.stage2_tlb.walker.walks            0                       # Table walker walks requested
system.cpu.itb.stage2_mmu.stage2_tlb.write_accesses            0                       # DTB write accesses
system.cpu.itb.stage2_mmu.stage2_tlb.write_hits            0                       # DTB write hits
system.cpu.itb.stage2_mmu.stage2_tlb.write_misses            0                       # DTB write misses
system.cpu.itb.walker.walkRequestOrigin_Requested::Data            0                       # Table walker requests started/completed, data/inst
system.cpu.itb.walker.walkRequestOrigin_Requested::Inst            0                       # Table walker requests started/completed, data/inst
system.cpu.itb.walker.walkRequestOrigin_Requested::total            0                       # Table walker requests started/completed, data/inst
system.cpu.itb.walker.walkRequestOrigin_Completed::Data            0                       # Table walker requests started/completed, data/inst
system.cpu.itb.walker.walkRequestOrigin_Completed::Inst            0                       # Table walker requests started/completed, data/inst
system.cpu.itb.walker.walkRequestOrigin_Completed::total            0                       # Table walker requests started/completed, data/inst
system.cpu.itb.walker.walkRequestOrigin::total            0                       # Table walker requests started/completed, data/inst
system.cpu.itb.walker.walks                         0                       # Table walker walks requested
system.cpu.itb.write_accesses                       0                       # DTB write accesses
system.cpu.itb.write_hits                           0                       # DTB write hits
system.cpu.itb.write_misses                         0                       # DTB write misses
system.cpu.memDep0.conflictingLoads           8571821                       # Number of conflicting loads.
system.cpu.memDep0.conflictingStores          7522531                       # Number of conflicting stores.
system.cpu.memDep0.insertedLoads            124282295                       # Number of loads inserted to the mem dependence unit.
system.cpu.memDep0.insertedStores            77359415                       # Number of stores inserted to the mem dependence unit.
system.cpu.misc_regfile_reads              1298051029                       # number of misc regfile reads
system.cpu.misc_regfile_writes              141637090                       # number of misc regfile writes
system.cpu.numCycles                       1006977387                       # number of cpu cycles simulated
system.cpu.numWorkItemsCompleted                    0                       # number of work items this cpu completed
system.cpu.numWorkItemsStarted                      0                       # number of work items this cpu started
system.cpu.rename.BlockCycles               355800431                       # Number of cycles rename is blocking
system.cpu.rename.CommittedMaps             672403358                       # Number of HB maps that are committed
system.cpu.rename.IQFullEvents               60652210                       # Number of times rename has blocked due to IQ full
system.cpu.rename.IdleCycles                 33097209                       # Number of cycles rename is idle
system.cpu.rename.LQFullEvents              260643288                       # Number of times rename has blocked due to LQ full
system.cpu.rename.ROBFullEvents                289529                       # Number of times rename has blocked due to ROB full
system.cpu.rename.RenameLookups            1884568882                       # Number of register rename lookups that rename has made
system.cpu.rename.RenamedInsts              513819061                       # Number of instructions processed by rename
system.cpu.rename.RenamedOperands           687132426                       # Number of destination operands rename has renamed
system.cpu.rename.RunCycles                  58479191                       # Number of cycles rename is running
system.cpu.rename.SQFullEvents              268352936                       # Number of times rename has blocked due to SQ full
system.cpu.rename.SquashCycles                 459628                       # Number of cycles rename is squashing
system.cpu.rename.UnblockCycles             558825282                       # Number of cycles rename is unblocking
system.cpu.rename.UndoneMaps                 14728947                       # Number of HB maps that are undone due to squashing
system.cpu.rename.int_rename_lookups        579461098                       # Number of integer rename lookups
system.cpu.rename.serializeStallCycles         122142                       # count of cycles rename stalled for serializing inst
system.cpu.rename.serializingInsts               2563                       # count of serializing insts renamed
system.cpu.rename.skidInsts                 186811505                       # count of insts added to the skid buffer
system.cpu.rename.tempSerializingInsts            286                       # count of temporary serializing insts renamed
system.cpu.rename.vec_rename_lookups        368894986                       # Number of vector rename lookups
system.cpu.rob.rob_reads                   1485544658                       # The number of ROB reads
system.cpu.rob.rob_writes                  1023142956                       # The number of ROB writes
system.cpu.timesIdled                            1831                       # Number of times that the entire CPU went into an idle state and unscheduled itself
system.cpu.vec_regfile_reads                366160122                       # number of vector regfile reads
system.cpu.vec_regfile_writes               267485924                       # number of vector regfile writes
system.cpu.workload.numSyscalls                    50                       # Number of system calls
system.membus.snoop_filter.hit_multi_requests            0                       # Number of requests hitting in the snoop filter with multiple (>1) holders of the requested data.
system.membus.snoop_filter.hit_multi_snoops            0                       # Number of snoops hitting in the snoop filter with multiple (>1) holders of the requested data.
system.membus.snoop_filter.hit_single_requests     13768947                       # Number of requests hitting in the snoop filter with a single holder of the requested data.
system.membus.snoop_filter.hit_single_snoops            0                       # Number of snoops hitting in the snoop filter with a single holder of the requested data.
system.membus.snoop_filter.tot_requests      27557380                       # Total number of requests made to the snoop filter.
system.membus.snoop_filter.tot_snoops               0                       # Total number of snoops made to the snoop filter.
system.tol2bus.snoop_filter.hit_multi_requests            1                       # Number of requests hitting in the snoop filter with multiple (>1) holders of the requested data.
system.tol2bus.snoop_filter.hit_multi_snoops            0                       # Number of snoops hitting in the snoop filter with multiple (>1) holders of the requested data.
system.tol2bus.snoop_filter.hit_single_requests     14479717                       # Number of requests hitting in the snoop filter with a single holder of the requested data.
system.tol2bus.snoop_filter.hit_single_snoops      5260452                       # Number of snoops hitting in the snoop filter with a single holder of the requested data.
system.tol2bus.snoop_filter.tot_requests     28965892                       # Total number of requests made to the snoop filter.
system.tol2bus.snoop_filter.tot_snoops        5260452                       # Total number of snoops made to the snoop filter.
system.membus.trans_dist::ReadResp            7173919                       # Transaction distribution
system.membus.trans_dist::WritebackDirty      7056779                       # Transaction distribution
system.membus.trans_dist::CleanEvict          6712168                       # Transaction distribution
system.membus.trans_dist::ReadExReq           6614353                       # Transaction distribution
system.membus.trans_dist::ReadExResp          6614353                       # Transaction distribution
system.membus.trans_dist::ReadSharedReq       7173919                       # Transaction distribution
system.membus.trans_dist::InvalidateReq           161                       # Transaction distribution
system.membus.pkt_count_system.l2.mem_side::system.mem_ctrls.port     41345652                       # Packet count per connected master and slave (bytes)
system.membus.pkt_count::total               41345652                       # Packet count per connected master and slave (bytes)
system.membus.pkt_size_system.l2.mem_side::system.mem_ctrls.port   1334083264                       # Cumulative packet size per connected master and slave (bytes)
system.membus.pkt_size::total              1334083264                       # Cumulative packet size per connected master and slave (bytes)
system.membus.snoops                                0                       # Total snoops (count)
system.membus.snoopTraffic                          0                       # Total snoop traffic (bytes)
system.membus.snoop_fanout::samples          13788433                       # Request fanout histogram
system.membus.snoop_fanout::mean                    0                       # Request fanout histogram
system.membus.snoop_fanout::stdev                   0                       # Request fanout histogram
system.membus.snoop_fanout::underflows              0      0.00%      0.00% # Request fanout histogram
system.membus.snoop_fanout::0                13788433    100.00%    100.00% # Request fanout histogram
system.membus.snoop_fanout::1                       0      0.00%    100.00% # Request fanout histogram
system.membus.snoop_fanout::overflows               0      0.00%    100.00% # Request fanout histogram
system.membus.snoop_fanout::min_value               0                       # Request fanout histogram
system.membus.snoop_fanout::max_value               0                       # Request fanout histogram
system.membus.snoop_fanout::total            13788433                       # Request fanout histogram
system.membus.reqLayer0.occupancy         58811674000                       # Layer occupancy (ticks)
system.membus.reqLayer0.utilization              11.7                       # Layer utilization (%)
system.membus.respLayer1.occupancy        73313446000                       # Layer occupancy (ticks)
system.membus.respLayer1.utilization             14.6                       # Layer utilization (%)
system.membus.power_state.pwrStateResidencyTicks::UNDEFINED 503488692500                       # Cumulative time (in ticks) in various power states
system.tol2bus.trans_dist::ReadResp           7779787                       # Transaction distribution
system.tol2bus.trans_dist::WritebackDirty     14282041                       # Transaction distribution
system.tol2bus.trans_dist::WritebackClean           24                       # Transaction distribution
system.tol2bus.trans_dist::CleanEvict        16854413                       # Transaction distribution
system.tol2bus.trans_dist::ReadExReq          6706227                       # Transaction distribution
system.tol2bus.trans_dist::ReadExResp         6706227                       # Transaction distribution
system.tol2bus.trans_dist::ReadCleanReq          2386                       # Transaction distribution
system.tol2bus.trans_dist::ReadSharedReq      7777401                       # Transaction distribution
system.tol2bus.trans_dist::InvalidateReq          161                       # Transaction distribution
system.tol2bus.trans_dist::InvalidateResp          161                       # Transaction distribution
system.tol2bus.pkt_count_system.cpu.icache.mem_side::system.l2.cpu_side         4796                       # Packet count per connected master and slave (bytes)
system.tol2bus.pkt_count_system.cpu.dcache.mem_side::system.l2.cpu_side     43447271                       # Packet count per connected master and slave (bytes)
system.tol2bus.pkt_count::total              43452067                       # Packet count per connected master and slave (bytes)
system.tol2bus.pkt_size_system.cpu.icache.mem_side::system.l2.cpu_side       154240                       # Cumulative packet size per connected master and slave (bytes)
system.tol2bus.pkt_size_system.cpu.dcache.mem_side::system.l2.cpu_side   1389368960                       # Cumulative packet size per connected master and slave (bytes)
system.tol2bus.pkt_size::total             1389523200                       # Cumulative packet size per connected master and slave (bytes)
system.tol2bus.snoops                        16656761                       # Total snoops (count)
system.tol2bus.snoopTraffic                 451633856                       # Total snoop traffic (bytes)
system.tol2bus.snoop_fanout::samples         31142936                       # Request fanout histogram
system.tol2bus.snoop_fanout::mean            0.168913                       # Request fanout histogram
system.tol2bus.snoop_fanout::stdev           0.374675                       # Request fanout histogram
system.tol2bus.snoop_fanout::underflows             0      0.00%      0.00% # Request fanout histogram
system.tol2bus.snoop_fanout::0               25882483     83.11%     83.11% # Request fanout histogram
system.tol2bus.snoop_fanout::1                5260453     16.89%    100.00% # Request fanout histogram
system.tol2bus.snoop_fanout::2                      0      0.00%    100.00% # Request fanout histogram
system.tol2bus.snoop_fanout::overflows              0      0.00%    100.00% # Request fanout histogram
system.tol2bus.snoop_fanout::min_value              0                       # Request fanout histogram
system.tol2bus.snoop_fanout::max_value              1                       # Request fanout histogram
system.tol2bus.snoop_fanout::total           31142936                       # Request fanout histogram
system.tol2bus.reqLayer0.occupancy        21708232000                       # Layer occupancy (ticks)
system.tol2bus.reqLayer0.utilization              4.3                       # Layer utilization (%)
system.tol2bus.respLayer1.occupancy       21725522500                       # Layer occupancy (ticks)
system.tol2bus.respLayer1.utilization             4.3                       # Layer utilization (%)
system.tol2bus.respLayer0.occupancy           3579000                       # Layer occupancy (ticks)
system.tol2bus.respLayer0.utilization             0.0                       # Layer utilization (%)
system.tol2bus.power_state.pwrStateResidencyTicks::UNDEFINED 503488692500                       # Cumulative time (in ticks) in various power states
system.voltage_domain.voltage                       1                       # Voltage in Volts
system.clk_domain.clock                          1000                       # Clock period in ticks
system.l2.demand_hits::.cpu.inst                    1                       # number of demand (read+write) hits
system.l2.demand_hits::.cpu.data               697741                       # number of demand (read+write) hits
system.l2.demand_hits::total                   697742                       # number of demand (read+write) hits
system.l2.overall_hits::.cpu.inst                   1                       # number of overall hits
system.l2.overall_hits::.cpu.data              697741                       # number of overall hits
system.l2.overall_hits::total                  697742                       # number of overall hits
system.l2.demand_misses::.cpu.inst               2385                       # number of demand (read+write) misses
system.l2.demand_misses::.cpu.data           13785887                       # number of demand (read+write) misses
system.l2.demand_misses::total               13788272                       # number of demand (read+write) misses
system.l2.overall_misses::.cpu.inst              2385                       # number of overall misses
system.l2.overall_misses::.cpu.data          13785887                       # number of overall misses
system.l2.overall_misses::total              13788272                       # number of overall misses
system.l2.demand_miss_latency::.cpu.inst    197703500                       # number of demand (read+write) miss cycles
system.l2.demand_miss_latency::.cpu.data 1427221523500                       # number of demand (read+write) miss cycles
system.l2.demand_miss_latency::total     1427419227000                       # number of demand (read+write) miss cycles
system.l2.overall_miss_latency::.cpu.inst    197703500                       # number of overall miss cycles
system.l2.overall_miss_latency::.cpu.data 1427221523500                       # number of overall miss cycles
system.l2.overall_miss_latency::total    1427419227000                       # number of overall miss cycles
system.l2.demand_accesses::.cpu.inst             2386                       # number of demand (read+write) accesses
system.l2.demand_accesses::.cpu.data         14483628                       # number of demand (read+write) accesses
system.l2.demand_accesses::total             14486014                       # number of demand (read+write) accesses
system.l2.overall_accesses::.cpu.inst            2386                       # number of overall (read+write) accesses
system.l2.overall_accesses::.cpu.data        14483628                       # number of overall (read+write) accesses
system.l2.overall_accesses::total            14486014                       # number of overall (read+write) accesses
system.l2.demand_miss_rate::.cpu.inst        0.999581                       # miss rate for demand accesses
system.l2.demand_miss_rate::.cpu.data        0.951826                       # miss rate for demand accesses
system.l2.demand_miss_rate::total            0.951833                       # miss rate for demand accesses
system.l2.overall_miss_rate::.cpu.inst       0.999581                       # miss rate for overall accesses
system.l2.overall_miss_rate::.cpu.data       0.951826                       # miss rate for overall accesses
system.l2.overall_miss_rate::total           0.951833                       # miss rate for overall accesses
system.l2.demand_avg_miss_latency::.cpu.inst 82894.549266                       # average overall miss latency
system.l2.demand_avg_miss_latency::.cpu.data 103527.725383                       # average overall miss latency
system.l2.demand_avg_miss_latency::total 103524.156399                       # average overall miss latency
system.l2.overall_avg_miss_latency::.cpu.inst 82894.549266                       # average overall miss latency
system.l2.overall_avg_miss_latency::.cpu.data 103527.725383                       # average overall miss latency
system.l2.overall_avg_miss_latency::total 103524.156399                       # average overall miss latency
system.l2.blocked_cycles::no_mshrs                  0                       # number of cycles access was blocked
system.l2.blocked_cycles::no_targets                0                       # number of cycles access was blocked
system.l2.blocked::no_mshrs                         0                       # number of cycles access was blocked
system.l2.blocked::no_targets                       0                       # number of cycles access was blocked
system.l2.avg_blocked_cycles::no_mshrs            nan                       # average number of cycles each access was blocked
system.l2.avg_blocked_cycles::no_targets          nan                       # average number of cycles each access was blocked
system.l2.writebacks::.writebacks             7056779                       # number of writebacks
system.l2.writebacks::total                   7056779                       # number of writebacks
system.l2.demand_mshr_misses::.cpu.inst          2385                       # number of demand (read+write) MSHR misses
system.l2.demand_mshr_misses::.cpu.data      13785887                       # number of demand (read+write) MSHR misses
system.l2.demand_mshr_misses::total          13788272                       # number of demand (read+write) MSHR misses
system.l2.overall_mshr_misses::.cpu.inst         2385                       # number of overall MSHR misses
system.l2.overall_mshr_misses::.cpu.data     13785887                       # number of overall MSHR misses
system.l2.overall_mshr_misses::total         13788272                       # number of overall MSHR misses
system.l2.demand_mshr_miss_latency::.cpu.inst    173853500                       # number of demand (read+write) MSHR miss cycles
system.l2.demand_mshr_miss_latency::.cpu.data 1289362653500                       # number of demand (read+write) MSHR miss cycles
system.l2.demand_mshr_miss_latency::total 1289536507000                       # number of demand (read+write) MSHR miss cycles
system.l2.overall_mshr_miss_latency::.cpu.inst    173853500                       # number of overall MSHR miss cycles
system.l2.overall_mshr_miss_latency::.cpu.data 1289362653500                       # number of overall MSHR miss cycles
system.l2.overall_mshr_miss_latency::total 1289536507000                       # number of overall MSHR miss cycles
system.l2.demand_mshr_miss_rate::.cpu.inst     0.999581                       # mshr miss rate for demand accesses
system.l2.demand_mshr_miss_rate::.cpu.data     0.951826                       # mshr miss rate for demand accesses
system.l2.demand_mshr_miss_rate::total       0.951833                       # mshr miss rate for demand accesses
system.l2.overall_mshr_miss_rate::.cpu.inst     0.999581                       # mshr miss rate for overall accesses
system.l2.overall_mshr_miss_rate::.cpu.data     0.951826                       # mshr miss rate for overall accesses
system.l2.overall_mshr_miss_rate::total      0.951833                       # mshr miss rate for overall accesses
system.l2.demand_avg_mshr_miss_latency::.cpu.inst 72894.549266                       # average overall mshr miss latency
system.l2.demand_avg_mshr_miss_latency::.cpu.data 93527.725383                       # average overall mshr miss latency
system.l2.demand_avg_mshr_miss_latency::total 93524.156399                       # average overall mshr miss latency
system.l2.overall_avg_mshr_miss_latency::.cpu.inst 72894.549266                       # average overall mshr miss latency
system.l2.overall_avg_mshr_miss_latency::.cpu.data 93527.725383                       # average overall mshr miss latency
system.l2.overall_avg_mshr_miss_latency::total 93524.156399                       # average overall mshr miss latency
system.l2.replacements                       16656761                       # number of replacements
system.l2.WritebackDirty_hits::.writebacks      7225262                       # number of WritebackDirty hits
system.l2.WritebackDirty_hits::total          7225262                       # number of WritebackDirty hits
system.l2.WritebackDirty_accesses::.writebacks      7225262                       # number of WritebackDirty accesses(hits+misses)
system.l2.WritebackDirty_accesses::total      7225262                       # number of WritebackDirty accesses(hits+misses)
system.l2.WritebackClean_hits::.writebacks           24                       # number of WritebackClean hits
system.l2.WritebackClean_hits::total               24                       # number of WritebackClean hits
system.l2.WritebackClean_accesses::.writebacks           24                       # number of WritebackClean accesses(hits+misses)
system.l2.WritebackClean_accesses::total           24                       # number of WritebackClean accesses(hits+misses)
system.l2.CleanEvict_mshr_misses::.writebacks      2372638                       # number of CleanEvict MSHR misses
system.l2.CleanEvict_mshr_misses::total       2372638                       # number of CleanEvict MSHR misses
system.l2.CleanEvict_mshr_miss_rate::.writebacks          inf                       # mshr miss rate for CleanEvict accesses
system.l2.CleanEvict_mshr_miss_rate::total          inf                       # mshr miss rate for CleanEvict accesses
system.l2.ReadExReq_hits::.cpu.data             91874                       # number of ReadExReq hits
system.l2.ReadExReq_hits::total                 91874                       # number of ReadExReq hits
system.l2.ReadExReq_misses::.cpu.data         6614353                       # number of ReadExReq misses
system.l2.ReadExReq_misses::total             6614353                       # number of ReadExReq misses
system.l2.ReadExReq_miss_latency::.cpu.data 758346711500                       # number of ReadExReq miss cycles
system.l2.ReadExReq_miss_latency::total  758346711500                       # number of ReadExReq miss cycles
system.l2.ReadExReq_accesses::.cpu.data       6706227                       # number of ReadExReq accesses(hits+misses)
system.l2.ReadExReq_accesses::total           6706227                       # number of ReadExReq accesses(hits+misses)
system.l2.ReadExReq_miss_rate::.cpu.data     0.986300                       # miss rate for ReadExReq accesses
system.l2.ReadExReq_miss_rate::total         0.986300                       # miss rate for ReadExReq accesses
system.l2.ReadExReq_avg_miss_latency::.cpu.data 114651.684224                       # average ReadExReq miss latency
system.l2.ReadExReq_avg_miss_latency::total 114651.684224                       # average ReadExReq miss latency
system.l2.ReadExReq_mshr_misses::.cpu.data      6614353                       # number of ReadExReq MSHR misses
system.l2.ReadExReq_mshr_misses::total        6614353                       # number of ReadExReq MSHR misses
system.l2.ReadExReq_mshr_miss_latency::.cpu.data 692203181500                       # number of ReadExReq MSHR miss cycles
system.l2.ReadExReq_mshr_miss_latency::total 692203181500                       # number of ReadExReq MSHR miss cycles
system.l2.ReadExReq_mshr_miss_rate::.cpu.data     0.986300                       # mshr miss rate for ReadExReq accesses
system.l2.ReadExReq_mshr_miss_rate::total     0.986300                       # mshr miss rate for ReadExReq accesses
system.l2.ReadExReq_avg_mshr_miss_latency::.cpu.data 104651.684224                       # average ReadExReq mshr miss latency
system.l2.ReadExReq_avg_mshr_miss_latency::total 104651.684224                       # average ReadExReq mshr miss latency
system.l2.ReadCleanReq_hits::.cpu.inst              1                       # number of ReadCleanReq hits
system.l2.ReadCleanReq_hits::total                  1                       # number of ReadCleanReq hits
system.l2.ReadCleanReq_misses::.cpu.inst         2385                       # number of ReadCleanReq misses
system.l2.ReadCleanReq_misses::total             2385                       # number of ReadCleanReq misses
system.l2.ReadCleanReq_miss_latency::.cpu.inst    197703500                       # number of ReadCleanReq miss cycles
system.l2.ReadCleanReq_miss_latency::total    197703500                       # number of ReadCleanReq miss cycles
system.l2.ReadCleanReq_accesses::.cpu.inst         2386                       # number of ReadCleanReq accesses(hits+misses)
system.l2.ReadCleanReq_accesses::total           2386                       # number of ReadCleanReq accesses(hits+misses)
system.l2.ReadCleanReq_miss_rate::.cpu.inst     0.999581                       # miss rate for ReadCleanReq accesses
system.l2.ReadCleanReq_miss_rate::total      0.999581                       # miss rate for ReadCleanReq accesses
system.l2.ReadCleanReq_avg_miss_latency::.cpu.inst 82894.549266                       # average ReadCleanReq miss latency
system.l2.ReadCleanReq_avg_miss_latency::total 82894.549266                       # average ReadCleanReq miss latency
[...]
system.cpu.dcache.demand_accesses::total    196816411                       # number of demand (read+write) accesses
system.cpu.dcache.overall_accesses::.cpu.data    196816591                       # number of overall (read+write) accesses
system.cpu.dcache.overall_accesses::total    196816591                       # number of overall (read+write) accesses
system.cpu.dcache.demand_miss_rate::.cpu.data     0.399169                       # miss rate for demand accesses
system.cpu.dcache.demand_miss_rate::total     0.399169                       # miss rate for demand accesses
system.cpu.dcache.overall_miss_rate::.cpu.data     0.399169                       # miss rate for overall accesses
system.cpu.dcache.overall_miss_rate::total     0.399169                       # miss rate for overall accesses
system.cpu.dcache.demand_avg_miss_latency::.cpu.data 77142.196232                       # average overall miss latency
system.cpu.dcache.demand_avg_miss_latency::total 77142.196232                       # average overall miss latency
system.cpu.dcache.overall_avg_miss_latency::.cpu.data 77142.190340                       # average overall miss latency
system.cpu.dcache.overall_avg_miss_latency::total 77142.190340                       # average overall miss latency
system.cpu.dcache.blocked_cycles::no_mshrs    543787365                       # number of cycles access was blocked
system.cpu.dcache.blocked_cycles::no_targets     42438459                       # number of cycles access was blocked
system.cpu.dcache.blocked::no_mshrs           8925105                       # number of cycles access was blocked
system.cpu.dcache.blocked::no_targets          313497                       # number of cycles access was blocked
system.cpu.dcache.avg_blocked_cycles::no_mshrs    60.927840                       # average number of cycles each access was blocked
system.cpu.dcache.avg_blocked_cycles::no_targets   135.371181                       # average number of cycles each access was blocked
system.cpu.dcache.writebacks::.writebacks      7225262                       # number of writebacks
system.cpu.dcache.writebacks::total           7225262                       # number of writebacks
system.cpu.dcache.demand_mshr_hits::.cpu.data     64079286                       # number of demand (read+write) MSHR hits
system.cpu.dcache.demand_mshr_hits::total     64079286                       # number of demand (read+write) MSHR hits
system.cpu.dcache.overall_mshr_hits::.cpu.data     64079286                       # number of overall MSHR hits
system.cpu.dcache.overall_mshr_hits::total     64079286                       # number of overall MSHR hits
system.cpu.dcache.demand_mshr_misses::.cpu.data     14483779                       # number of demand (read+write) MSHR misses
system.cpu.dcache.demand_mshr_misses::total     14483779                       # number of demand (read+write) MSHR misses
system.cpu.dcache.overall_mshr_misses::.cpu.data     14483785                       # number of overall MSHR misses
system.cpu.dcache.overall_mshr_misses::total     14483785                       # number of overall MSHR misses
system.cpu.dcache.demand_mshr_miss_latency::.cpu.data 1461034641700                       # number of demand (read+write) MSHR miss cycles
system.cpu.dcache.demand_mshr_miss_latency::total 1461034641700                       # number of demand (read+write) MSHR miss cycles
system.cpu.dcache.overall_mshr_miss_latency::.cpu.data 1461035129700                       # number of overall MSHR miss cycles
system.cpu.dcache.overall_mshr_miss_latency::total 1461035129700                       # number of overall MSHR miss cycles
system.cpu.dcache.demand_mshr_miss_rate::.cpu.data     0.073590                       # mshr miss rate for demand accesses
system.cpu.dcache.demand_mshr_miss_rate::total     0.073590                       # mshr miss rate for demand accesses
system.cpu.dcache.overall_mshr_miss_rate::.cpu.data     0.073590                       # mshr miss rate for overall accesses
system.cpu.dcache.overall_mshr_miss_rate::total     0.073590                       # mshr miss rate for overall accesses
system.cpu.dcache.demand_avg_mshr_miss_latency::.cpu.data 100873.856312                       # average overall mshr miss latency
system.cpu.dcache.demand_avg_mshr_miss_latency::total 100873.856312                       # average overall mshr miss latency
system.cpu.dcache.overall_avg_mshr_miss_latency::.cpu.data 100873.848217                       # average overall mshr miss latency
system.cpu.dcache.overall_avg_mshr_miss_latency::total 100873.848217                       # average overall mshr miss latency
system.cpu.dcache.replacements               14479693                       # number of replacements
system.cpu.dcache.ReadReq_hits::.cpu.data     86243695                       # number of ReadReq hits
system.cpu.dcache.ReadReq_hits::total        86243695                       # number of ReadReq hits
system.cpu.dcache.ReadReq_misses::.cpu.data     35316344                       # number of ReadReq misses
system.cpu.dcache.ReadReq_misses::total      35316344                       # number of ReadReq misses
system.cpu.dcache.ReadReq_miss_latency::.cpu.data 2232040640500                       # number of ReadReq miss cycles
system.cpu.dcache.ReadReq_miss_latency::total 2232040640500                       # number of ReadReq miss cycles
system.cpu.dcache.ReadReq_accesses::.cpu.data    121560039                       # number of ReadReq accesses(hits+misses)
system.cpu.dcache.ReadReq_accesses::total    121560039                       # number of ReadReq accesses(hits+misses)
system.cpu.dcache.ReadReq_miss_rate::.cpu.data     0.290526                       # miss rate for ReadReq accesses
system.cpu.dcache.ReadReq_miss_rate::total     0.290526                       # miss rate for ReadReq accesses
system.cpu.dcache.ReadReq_avg_miss_latency::.cpu.data 63201.350641                       # average ReadReq miss latency
system.cpu.dcache.ReadReq_avg_miss_latency::total 63201.350641                       # average ReadReq miss latency
system.cpu.dcache.ReadReq_mshr_hits::.cpu.data     27538954                       # number of ReadReq MSHR hits
system.cpu.dcache.ReadReq_mshr_hits::total     27538954                       # number of ReadReq MSHR hits
system.cpu.dcache.ReadReq_mshr_misses::.cpu.data      7777390                       # number of ReadReq MSHR misses
system.cpu.dcache.ReadReq_mshr_misses::total      7777390                       # number of ReadReq MSHR misses
system.cpu.dcache.ReadReq_mshr_miss_latency::.cpu.data 688274239500                       # number of ReadReq MSHR miss cycles
system.cpu.dcache.ReadReq_mshr_miss_latency::total 688274239500                       # number of ReadReq MSHR miss cycles
system.cpu.dcache.ReadReq_mshr_miss_rate::.cpu.data     0.063980                       # mshr miss rate for ReadReq accesses
system.cpu.dcache.ReadReq_mshr_miss_rate::total     0.063980                       # mshr miss rate for ReadReq accesses
system.cpu.dcache.ReadReq_avg_mshr_miss_latency::.cpu.data 88496.814420                       # average ReadReq mshr miss latency
system.cpu.dcache.ReadReq_avg_mshr_miss_latency::total 88496.814420                       # average ReadReq mshr miss latency
system.cpu.dcache.WriteReq_hits::.cpu.data     32009607                       # number of WriteReq hits
system.cpu.dcache.WriteReq_hits::total       32009607                       # number of WriteReq hits
system.cpu.dcache.WriteReq_misses::.cpu.data     43246594                       # number of WriteReq misses
system.cpu.dcache.WriteReq_misses::total     43246594                       # number of WriteReq misses
system.cpu.dcache.WriteReq_miss_latency::.cpu.data 3828482680389                       # number of WriteReq miss cycles
system.cpu.dcache.WriteReq_miss_latency::total 3828482680389                       # number of WriteReq miss cycles
system.cpu.dcache.WriteReq_accesses::.cpu.data     75256201                       # number of WriteReq accesses(hits+misses)
system.cpu.dcache.WriteReq_accesses::total     75256201                       # number of WriteReq accesses(hits+misses)
system.cpu.dcache.WriteReq_miss_rate::.cpu.data     0.574658                       # miss rate for WriteReq accesses
system.cpu.dcache.WriteReq_miss_rate::total     0.574658                       # miss rate for WriteReq accesses
system.cpu.dcache.WriteReq_avg_miss_latency::.cpu.data 88526.802374                       # average WriteReq miss latency
system.cpu.dcache.WriteReq_avg_miss_latency::total 88526.802374                       # average WriteReq miss latency
system.cpu.dcache.WriteReq_mshr_hits::.cpu.data     36540332                       # number of WriteReq MSHR hits
system.cpu.dcache.WriteReq_mshr_hits::total     36540332                       # number of WriteReq MSHR hits
system.cpu.dcache.WriteReq_mshr_misses::.cpu.data      6706262                       # number of WriteReq MSHR misses
system.cpu.dcache.WriteReq_mshr_misses::total      6706262                       # number of WriteReq MSHR misses
system.cpu.dcache.WriteReq_mshr_miss_latency::.cpu.data 772756473280                       # number of WriteReq MSHR miss cycles
system.cpu.dcache.WriteReq_mshr_miss_latency::total 772756473280                       # number of WriteReq MSHR miss cycles
system.cpu.dcache.WriteReq_mshr_miss_rate::.cpu.data     0.089112                       # mshr miss rate for WriteReq accesses
system.cpu.dcache.WriteReq_mshr_miss_rate::total     0.089112                       # mshr miss rate for WriteReq accesses
system.cpu.dcache.WriteReq_avg_mshr_miss_latency::.cpu.data 115229.090853                       # average WriteReq mshr miss latency
system.cpu.dcache.WriteReq_avg_mshr_miss_latency::total 115229.090853                       # average WriteReq mshr miss latency
system.cpu.dcache.SoftPFReq_hits::.cpu.data          174                       # number of SoftPFReq hits
system.cpu.dcache.SoftPFReq_hits::total           174                       # number of SoftPFReq hits
system.cpu.dcache.SoftPFReq_misses::.cpu.data            6                       # number of SoftPFReq misses
system.cpu.dcache.SoftPFReq_misses::total            6                       # number of SoftPFReq misses
system.cpu.dcache.SoftPFReq_accesses::.cpu.data          180                       # number of SoftPFReq accesses(hits+misses)
system.cpu.dcache.SoftPFReq_accesses::total          180                       # number of SoftPFReq accesses(hits+misses)
system.cpu.dcache.SoftPFReq_miss_rate::.cpu.data     0.033333                       # miss rate for SoftPFReq accesses
system.cpu.dcache.SoftPFReq_miss_rate::total     0.033333                       # miss rate for SoftPFReq accesses
system.cpu.dcache.SoftPFReq_mshr_misses::.cpu.data            6                       # number of SoftPFReq MSHR misses
system.cpu.dcache.SoftPFReq_mshr_misses::total            6                       # number of SoftPFReq MSHR misses
system.cpu.dcache.SoftPFReq_mshr_miss_latency::.cpu.data       488000                       # number of SoftPFReq MSHR miss cycles
system.cpu.dcache.SoftPFReq_mshr_miss_latency::total       488000                       # number of SoftPFReq MSHR miss cycles
system.cpu.dcache.SoftPFReq_mshr_miss_rate::.cpu.data     0.033333                       # mshr miss rate for SoftPFReq accesses
system.cpu.dcache.SoftPFReq_mshr_miss_rate::total     0.033333                       # mshr miss rate for SoftPFReq accesses
system.cpu.dcache.SoftPFReq_avg_mshr_miss_latency::.cpu.data 81333.333333                       # average SoftPFReq mshr miss latency
system.cpu.dcache.SoftPFReq_avg_mshr_miss_latency::total 81333.333333                       # average SoftPFReq mshr miss latency
system.cpu.dcache.WriteLineReq_hits::.cpu.data           44                       # number of WriteLineReq hits
system.cpu.dcache.WriteLineReq_hits::total           44                       # number of WriteLineReq hits
system.cpu.dcache.WriteLineReq_misses::.cpu.data          127                       # number of WriteLineReq misses
system.cpu.dcache.WriteLineReq_misses::total          127                       # number of WriteLineReq misses
system.cpu.dcache.WriteLineReq_miss_latency::.cpu.data      4055920                       # number of WriteLineReq miss cycles
system.cpu.dcache.WriteLineReq_miss_latency::total      4055920                       # number of WriteLineReq miss cycles
system.cpu.dcache.WriteLineReq_accesses::.cpu.data          171                       # number of WriteLineReq accesses(hits+misses)
system.cpu.dcache.WriteLineReq_accesses::total          171                       # number of WriteLineReq accesses(hits+misses)
system.cpu.dcache.WriteLineReq_miss_rate::.cpu.data     0.742690                       # miss rate for WriteLineReq accesses
system.cpu.dcache.WriteLineReq_miss_rate::total     0.742690                       # miss rate for WriteLineReq accesses
system.cpu.dcache.WriteLineReq_avg_miss_latency::.cpu.data 31936.377953                       # average WriteLineReq miss latency
system.cpu.dcache.WriteLineReq_avg_miss_latency::total 31936.377953                       # average WriteLineReq miss latency
system.cpu.dcache.WriteLineReq_mshr_misses::.cpu.data          127                       # number of WriteLineReq MSHR misses
system.cpu.dcache.WriteLineReq_mshr_misses::total          127                       # number of WriteLineReq MSHR misses
system.cpu.dcache.WriteLineReq_mshr_miss_latency::.cpu.data      3928920                       # number of WriteLineReq MSHR miss cycles
system.cpu.dcache.WriteLineReq_mshr_miss_latency::total      3928920                       # number of WriteLineReq MSHR miss cycles
system.cpu.dcache.WriteLineReq_mshr_miss_rate::.cpu.data     0.742690                       # mshr miss rate for WriteLineReq accesses
system.cpu.dcache.WriteLineReq_mshr_miss_rate::total     0.742690                       # mshr miss rate for WriteLineReq accesses
system.cpu.dcache.WriteLineReq_avg_mshr_miss_latency::.cpu.data 30936.377953                       # average WriteLineReq mshr miss latency
system.cpu.dcache.WriteLineReq_avg_mshr_miss_latency::total 30936.377953                       # average WriteLineReq mshr miss latency
system.cpu.dcache.LoadLockedReq_hits::.cpu.data          189                       # number of LoadLockedReq hits
system.cpu.dcache.LoadLockedReq_hits::total          189                       # number of LoadLockedReq hits
system.cpu.dcache.LoadLockedReq_misses::.cpu.data            7                       # number of LoadLockedReq misses
system.cpu.dcache.LoadLockedReq_misses::total            7                       # number of LoadLockedReq misses
system.cpu.dcache.LoadLockedReq_miss_latency::.cpu.data       695500                       # number of LoadLockedReq miss cycles
system.cpu.dcache.LoadLockedReq_miss_latency::total       695500                       # number of LoadLockedReq miss cycles
system.cpu.dcache.LoadLockedReq_accesses::.cpu.data          196                       # number of LoadLockedReq accesses(hits+misses)
system.cpu.dcache.LoadLockedReq_accesses::total          196                       # number of LoadLockedReq accesses(hits+misses)
system.cpu.dcache.LoadLockedReq_miss_rate::.cpu.data     0.035714                       # miss rate for LoadLockedReq accesses
system.cpu.dcache.LoadLockedReq_miss_rate::total     0.035714                       # miss rate for LoadLockedReq accesses
system.cpu.dcache.LoadLockedReq_avg_miss_latency::.cpu.data 99357.142857                       # average LoadLockedReq miss latency
system.cpu.dcache.LoadLockedReq_avg_miss_latency::total 99357.142857                       # average LoadLockedReq miss latency
system.cpu.dcache.LoadLockedReq_mshr_hits::.cpu.data            2                       # number of LoadLockedReq MSHR hits
system.cpu.dcache.LoadLockedReq_mshr_hits::total            2                       # number of LoadLockedReq MSHR hits
system.cpu.dcache.LoadLockedReq_mshr_misses::.cpu.data            5                       # number of LoadLockedReq MSHR misses
system.cpu.dcache.LoadLockedReq_mshr_misses::total            5                       # number of LoadLockedReq MSHR misses
system.cpu.dcache.LoadLockedReq_mshr_miss_latency::.cpu.data       529500                       # number of LoadLockedReq MSHR miss cycles
system.cpu.dcache.LoadLockedReq_mshr_miss_latency::total       529500                       # number of LoadLockedReq MSHR miss cycles
system.cpu.dcache.LoadLockedReq_mshr_miss_rate::.cpu.data     0.025510                       # mshr miss rate for LoadLockedReq accesses
system.cpu.dcache.LoadLockedReq_mshr_miss_rate::total     0.025510                       # mshr miss rate for LoadLockedReq accesses
system.cpu.dcache.LoadLockedReq_avg_mshr_miss_latency::.cpu.data       105900                       # average LoadLockedReq mshr miss latency
system.cpu.dcache.LoadLockedReq_avg_mshr_miss_latency::total       105900                       # average LoadLockedReq mshr miss latency
system.cpu.dcache.StoreCondReq_hits::.cpu.data          164                       # number of StoreCondReq hits
system.cpu.dcache.StoreCondReq_hits::total          164                       # number of StoreCondReq hits
system.cpu.dcache.StoreCondReq_accesses::.cpu.data          164                       # number of StoreCondReq accesses(hits+misses)
system.cpu.dcache.StoreCondReq_accesses::total          164                       # number of StoreCondReq accesses(hits+misses)
system.cpu.dcache.power_state.pwrStateResidencyTicks::UNDEFINED 503488692500                       # Cumulative time (in ticks) in various power states
system.cpu.dcache.tags.tagsinuse          4095.034472                       # Cycle average of tags in use
system.cpu.dcache.tags.total_refs           132737662                       # Total number of references to valid blocks.
system.cpu.dcache.tags.sampled_refs          14483789                       # Sample count of references to valid blocks.
system.cpu.dcache.tags.avg_refs              9.164568                       # Average number of references to valid blocks.
system.cpu.dcache.tags.warmup_cycle            176500                       # Cycle when the warmup percentage was hit.
system.cpu.dcache.tags.occ_blocks::.cpu.data  4095.034472                       # Average occupied blocks per requestor
system.cpu.dcache.tags.occ_percent::.cpu.data     0.999764                       # Average percentage of cache occupancy
system.cpu.dcache.tags.occ_percent::total     0.999764                       # Average percentage of cache occupancy
system.cpu.dcache.tags.occ_task_id_blocks::1024         4096                       # Occupied blocks per task id
system.cpu.dcache.tags.age_task_id_blocks_1024::0          328                       # Occupied blocks per task id
system.cpu.dcache.tags.age_task_id_blocks_1024::1         2701                       # Occupied blocks per task id
system.cpu.dcache.tags.age_task_id_blocks_1024::2         1067                       # Occupied blocks per task id
system.cpu.dcache.tags.occ_task_id_percent::1024            1                       # Percentage of cache occupancy per task id
system.cpu.dcache.tags.tag_accesses        1589019397                       # Number of tag accesses
system.cpu.dcache.tags.data_accesses       1589019397                       # Number of data accesses
system.cpu.dcache.tags.power_state.pwrStateResidencyTicks::UNDEFINED 503488692500                       # Cumulative time (in ticks) in various power states
system.cpu.power_state.pwrStateResidencyTicks::ON 503488692500                       # Cumulative time (in ticks) in various power states

---------- End Simulation Statistics   ----------
