500 Million
gem5 Simulator System.  http://gem5.org
gem5 is copyrighted software; use the --copyright option for details.

gem5 version 20.0.0.3
gem5 compiled Dec 17 2020 14:36:39
gem5 started Dec 17 2020 14:41:48
gem5 executing on ecegrid-thin3.ecn.purdue.edu, pid 7249
command line: ./build/ARM/gem5.opt -d amuddana_final_project/O3CPU/SCORE/astar/500M configs/spec2k6/run.py -b astar --maxinsts=500000000 --cpu-type=DerivO3CPU --caches --l2cache --l1d_size=256kB --l1i_size=256kB --l2_size=1MB --l1d_assoc=8 --l1i_assoc=4 --l2_assoc=16 --fast-forward=1000000000 --warmup-insts=75000000 --standard-switch=75000000

Global frequency set at 1000000000000 ticks per second
Switch at instruction count:1000000000
