
---------- Begin Simulation Statistics ----------
final_tick                               127752576500                       # Number of ticks from beginning of simulation (restored from checkpoints and never reset)
host_inst_rate                                 143475                       # Simulator instruction rate (inst/s)
host_mem_usage                                 846560                       # Number of bytes of host memory used
host_op_rate                                   161203                       # Simulator op (including micro ops) rate (op/s)
host_seconds                                  1742.46                       # Real time elapsed on the host
host_tick_rate                               73317260                       # Simulator tick rate (ticks/s)
sim_freq                                 1000000000000                       # Frequency of simulated ticks
sim_insts                                   250000003                       # Number of instructions simulated
sim_ops                                     280889904                       # Number of ops (including micro ops) simulated
sim_seconds                                  0.127753                       # Number of seconds simulated
sim_ticks                                127752576500                       # Number of ticks simulated
system.cpu.branchPred.BTBCorrect                    0                       # Number of correct BTB predictions (this stat may not work properly.
system.cpu.branchPred.BTBHitPct             99.993282                       # BTB Hit Percentage
system.cpu.branchPred.BTBHits                25078774                       # Number of BTB hits
system.cpu.branchPred.BTBLookups             25080459                       # Number of BTB lookups
system.cpu.branchPred.RASInCorrect                 10                       # Number of incorrect RAS predictions.
system.cpu.branchPred.condIncorrect            284697                       # Number of conditional branches incorrect
system.cpu.branchPred.condPredicted          48811033                       # Number of conditional branches predicted
system.cpu.branchPred.indirectHits             724199                       # Number of indirect target hits.
system.cpu.branchPred.indirectLookups          724529                       # Number of indirect predictor lookups.
system.cpu.branchPred.indirectMisses              330                       # Number of indirect misses.
system.cpu.branchPred.lookups                60120793                       # Number of BP lookups
system.cpu.branchPred.usedRAS                 2592832                       # Number of times the RAS was used to get a target.
system.cpu.branchPredindirectMispredicted           89                       # Number of mispredicted indirect branches.
system.cpu.cc_regfile_reads                 124024155                       # number of cc regfile reads
system.cpu.cc_regfile_writes                118161741                       # number of cc regfile writes
system.cpu.commit.amos                              0                       # Number of atomic instructions committed
system.cpu.commit.branchMispredicts            284213                       # The number of times a branch was mispredicted
system.cpu.commit.branches                   57549898                       # Number of branches committed
system.cpu.commit.bw_lim_events              11257052                       # number cycles where commit BW limit reached
system.cpu.commit.commitNonSpecStalls          247154                       # The number of times commit has been forced to stall to communicate backwards
system.cpu.commit.commitSquashedInsts         8126508                       # The number of squashed insts skipped by commit
system.cpu.commit.committedInsts            250123465                       # Number of instructions committed
system.cpu.commit.committedOps              281013366                       # Number of ops (including micro ops) committed
system.cpu.commit.committed_per_cycle::samples    243845029                       # Number of insts commited each cycle
system.cpu.commit.committed_per_cycle::mean     1.152426                       # Number of insts commited each cycle
system.cpu.commit.committed_per_cycle::stdev     2.123921                       # Number of insts commited each cycle
system.cpu.commit.committed_per_cycle::underflows            0      0.00%      0.00% # Number of insts commited each cycle
system.cpu.commit.committed_per_cycle::0    153839119     63.09%     63.09% # Number of insts commited each cycle
system.cpu.commit.committed_per_cycle::1     34790229     14.27%     77.36% # Number of insts commited each cycle
system.cpu.commit.committed_per_cycle::2     16033912      6.58%     83.93% # Number of insts commited each cycle
system.cpu.commit.committed_per_cycle::3      9214376      3.78%     87.71% # Number of insts commited each cycle
system.cpu.commit.committed_per_cycle::4      7859893      3.22%     90.93% # Number of insts commited each cycle
system.cpu.commit.committed_per_cycle::5      3142512      1.29%     92.22% # Number of insts commited each cycle
system.cpu.commit.committed_per_cycle::6      4651915      1.91%     94.13% # Number of insts commited each cycle
system.cpu.commit.committed_per_cycle::7      3056021      1.25%     95.38% # Number of insts commited each cycle
system.cpu.commit.committed_per_cycle::8     11257052      4.62%    100.00% # Number of insts commited each cycle
system.cpu.commit.committed_per_cycle::overflows            0      0.00%    100.00% # Number of insts commited each cycle
system.cpu.commit.committed_per_cycle::min_value            0                       # Number of insts commited each cycle
system.cpu.commit.committed_per_cycle::max_value            8                       # Number of insts commited each cycle
system.cpu.commit.committed_per_cycle::total    243845029                       # Number of insts commited each cycle
system.cpu.commit.fp_insts                          0                       # Number of committed floating point instructions.
system.cpu.commit.function_calls              2518297                       # Number of function calls committed.
system.cpu.commit.int_insts                 242281012                       # Number of committed integer instructions.
system.cpu.commit.loads                      43935312                       # Number of loads committed
system.cpu.commit.membars                      246912                       # Number of memory barriers committed
system.cpu.commit.op_class_0::No_OpClass       178910      0.06%      0.06% # Class of committed instruction
system.cpu.commit.op_class_0::IntAlu        193688660     68.93%     68.99% # Class of committed instruction
system.cpu.commit.op_class_0::IntMult         1527745      0.54%     69.53% # Class of committed instruction
system.cpu.commit.op_class_0::IntDiv                3      0.00%     69.53% # Class of committed instruction
system.cpu.commit.op_class_0::FloatAdd              0      0.00%     69.53% # Class of committed instruction
system.cpu.commit.op_class_0::FloatCmp              0      0.00%     69.53% # Class of committed instruction
system.cpu.commit.op_class_0::FloatCvt              0      0.00%     69.53% # Class of committed instruction
system.cpu.commit.op_class_0::FloatMult             0      0.00%     69.53% # Class of committed instruction
system.cpu.commit.op_class_0::FloatMultAcc            0      0.00%     69.53% # Class of committed instruction
system.cpu.commit.op_class_0::FloatDiv              0      0.00%     69.53% # Class of committed instruction
system.cpu.commit.op_class_0::FloatMisc             0      0.00%     69.53% # Class of committed instruction
system.cpu.commit.op_class_0::FloatSqrt             0      0.00%     69.53% # Class of committed instruction
system.cpu.commit.op_class_0::SimdAdd          415903      0.15%     69.68% # Class of committed instruction
system.cpu.commit.op_class_0::SimdAddAcc            0      0.00%     69.68% # Class of committed instruction
system.cpu.commit.op_class_0::SimdAlu          415901      0.15%     69.83% # Class of committed instruction
system.cpu.commit.op_class_0::SimdCmp          357828      0.13%     69.96% # Class of committed instruction
system.cpu.commit.op_class_0::SimdCvt               0      0.00%     69.96% # Class of committed instruction
system.cpu.commit.op_class_0::SimdMisc         484255      0.17%     70.13% # Class of committed instruction
system.cpu.commit.op_class_0::SimdMult              0      0.00%     70.13% # Class of committed instruction
system.cpu.commit.op_class_0::SimdMultAcc            0      0.00%     70.13% # Class of committed instruction
system.cpu.commit.op_class_0::SimdShift             0      0.00%     70.13% # Class of committed instruction
system.cpu.commit.op_class_0::SimdShiftAcc            0      0.00%     70.13% # Class of committed instruction
system.cpu.commit.op_class_0::SimdDiv               0      0.00%     70.13% # Class of committed instruction
system.cpu.commit.op_class_0::SimdSqrt              0      0.00%     70.13% # Class of committed instruction
system.cpu.commit.op_class_0::SimdFloatAdd            0      0.00%     70.13% # Class of committed instruction
system.cpu.commit.op_class_0::SimdFloatAlu            0      0.00%     70.13% # Class of committed instruction
system.cpu.commit.op_class_0::SimdFloatCmp            0      0.00%     70.13% # Class of committed instruction
system.cpu.commit.op_class_0::SimdFloatCvt            0      0.00%     70.13% # Class of committed instruction
system.cpu.commit.op_class_0::SimdFloatDiv            0      0.00%     70.13% # Class of committed instruction
system.cpu.commit.op_class_0::SimdFloatMisc            0      0.00%     70.13% # Class of committed instruction
system.cpu.commit.op_class_0::SimdFloatMult            0      0.00%     70.13% # Class of committed instruction
system.cpu.commit.op_class_0::SimdFloatMultAcc            0      0.00%     70.13% # Class of committed instruction
system.cpu.commit.op_class_0::SimdFloatSqrt            0      0.00%     70.13% # Class of committed instruction
system.cpu.commit.op_class_0::SimdReduceAdd            0      0.00%     70.13% # Class of committed instruction
system.cpu.commit.op_class_0::SimdReduceAlu            0      0.00%     70.13% # Class of committed instruction
system.cpu.commit.op_class_0::SimdReduceCmp            0      0.00%     70.13% # Class of committed instruction
system.cpu.commit.op_class_0::SimdFloatReduceAdd            0      0.00%     70.13% # Class of committed instruction
system.cpu.commit.op_class_0::SimdFloatReduceCmp            0      0.00%     70.13% # Class of committed instruction
system.cpu.commit.op_class_0::SimdAes               0      0.00%     70.13% # Class of committed instruction
system.cpu.commit.op_class_0::SimdAesMix            0      0.00%     70.13% # Class of committed instruction
system.cpu.commit.op_class_0::SimdSha1Hash            0      0.00%     70.13% # Class of committed instruction
system.cpu.commit.op_class_0::SimdSha1Hash2            0      0.00%     70.13% # Class of committed instruction
system.cpu.commit.op_class_0::SimdSha256Hash            0      0.00%     70.13% # Class of committed instruction
system.cpu.commit.op_class_0::SimdSha256Hash2            0      0.00%     70.13% # Class of committed instruction
system.cpu.commit.op_class_0::SimdShaSigma2            0      0.00%     70.13% # Class of committed instruction
system.cpu.commit.op_class_0::SimdShaSigma3            0      0.00%     70.13% # Class of committed instruction
system.cpu.commit.op_class_0::SimdPredAlu            0      0.00%     70.13% # Class of committed instruction
system.cpu.commit.op_class_0::MemRead        43935312     15.63%     85.76% # Class of committed instruction
system.cpu.commit.op_class_0::MemWrite       40008849     14.24%    100.00% # Class of committed instruction
system.cpu.commit.op_class_0::FloatMemRead            0      0.00%    100.00% # Class of committed instruction
system.cpu.commit.op_class_0::FloatMemWrite            0      0.00%    100.00% # Class of committed instruction
system.cpu.commit.op_class_0::IprAccess             0      0.00%    100.00% # Class of committed instruction
system.cpu.commit.op_class_0::InstPrefetch            0      0.00%    100.00% # Class of committed instruction
system.cpu.commit.op_class_0::total         281013366                       # Class of committed instruction
system.cpu.commit.refs                       83944161                       # Number of memory references committed
system.cpu.commit.swp_count                         0                       # Number of s/w prefetches committed
system.cpu.commit.vec_insts                   4185745                       # Number of committed Vector instructions.
system.cpu.committedInsts                   250000003                       # Number of Instructions Simulated
system.cpu.committedOps                     280889904                       # Number of Ops (including micro ops) Simulated
system.cpu.cpi                               1.022021                       # CPI: Cycles Per Instruction
system.cpu.cpi_total                         1.022021                       # CPI: Total CPI of All Threads
system.cpu.decode.BlockedCycles              46071777                       # Number of cycles decode is blocked
system.cpu.decode.BranchMispred                   488                       # Number of times decode detected a branch misprediction
system.cpu.decode.BranchResolved             25007391                       # Number of times decode resolved a branch
system.cpu.decode.DecodedInsts              290882594                       # Number of instructions handled by decode
system.cpu.decode.IdleCycles                141522515                       # Number of cycles decode is idle
system.cpu.decode.RunCycles                  55480545                       # Number of cycles decode is running
system.cpu.decode.SquashCycles                 289817                       # Number of cycles decode is squashing
system.cpu.decode.SquashedInsts                   941                       # Number of squashed instructions handled by decode
system.cpu.decode.UnblockCycles               1703015                       # Number of cycles decode is unblocking
system.cpu.dtb.accesses                             0                       # DTB accesses
system.cpu.dtb.align_faults                         0                       # Number of TLB faults due to alignment restrictions
system.cpu.dtb.domain_faults                        0                       # Number of TLB faults due to domain restrictions
system.cpu.dtb.flush_entries                        0                       # Number of entries that have been flushed from TLB
system.cpu.dtb.flush_tlb                            0                       # Number of times complete TLB was flushed
system.cpu.dtb.flush_tlb_asid                       0                       # Number of times TLB was flushed by ASID
system.cpu.dtb.flush_tlb_mva                        0                       # Number of times TLB was flushed by MVA
system.cpu.dtb.flush_tlb_mva_asid                   0                       # Number of times TLB was flushed by MVA & ASID
system.cpu.dtb.hits                                 0                       # DTB hits
system.cpu.dtb.inst_accesses                        0                       # ITB inst accesses
system.cpu.dtb.inst_hits                            0                       # ITB inst hits
system.cpu.dtb.inst_misses                          0                       # ITB inst misses
system.cpu.dtb.misses                               0                       # DTB misses
system.cpu.dtb.perms_faults                         0                       # Number of TLB faults due to permissions restrictions
system.cpu.dtb.prefetch_faults                      0                       # Number of TLB faults due to prefetch
system.cpu.dtb.read_accesses                        0                       # DTB read accesses
system.cpu.dtb.read_hits                            0                       # DTB read hits
system.cpu.dtb.read_misses                          0                       # DTB read misses
system.cpu.dtb.stage2_mmu.stage2_tlb.accesses            0                       # DTB accesses
system.cpu.dtb.stage2_mmu.stage2_tlb.align_faults            0                       # Number of TLB faults due to alignment restrictions
system.cpu.dtb.stage2_mmu.stage2_tlb.domain_faults            0                       # Number of TLB faults due to domain restrictions
system.cpu.dtb.stage2_mmu.stage2_tlb.flush_entries            0                       # Number of entries that have been flushed from TLB
system.cpu.dtb.stage2_mmu.stage2_tlb.flush_tlb            0                       # Number of times complete TLB was flushed
system.cpu.dtb.stage2_mmu.stage2_tlb.flush_tlb_asid            0                       # Number of times TLB was flushed by ASID
system.cpu.dtb.stage2_mmu.stage2_tlb.flush_tlb_mva            0                       # Number of times TLB was flushed by MVA
system.cpu.dtb.stage2_mmu.stage2_tlb.flush_tlb_mva_asid            0                       # Number of times TLB was flushed by MVA & ASID
system.cpu.dtb.stage2_mmu.stage2_tlb.hits            0                       # DTB hits
system.cpu.dtb.stage2_mmu.stage2_tlb.inst_accesses            0                       # ITB inst accesses
system.cpu.dtb.stage2_mmu.stage2_tlb.inst_hits            0                       # ITB inst hits
system.cpu.dtb.stage2_mmu.stage2_tlb.inst_misses            0                       # ITB inst misses
system.cpu.dtb.stage2_mmu.stage2_tlb.misses            0                       # DTB misses
system.cpu.dtb.stage2_mmu.stage2_tlb.perms_faults            0                       # Number of TLB faults due to permissions restrictions
system.cpu.dtb.stage2_mmu.stage2_tlb.prefetch_faults            0                       # Number of TLB faults due to prefetch
system.cpu.dtb.stage2_mmu.stage2_tlb.read_accesses            0                       # DTB read accesses
system.cpu.dtb.stage2_mmu.stage2_tlb.read_hits            0                       # DTB read hits
system.cpu.dtb.stage2_mmu.stage2_tlb.read_misses            0                       # DTB read misses
system.cpu.dtb.stage2_mmu.stage2_tlb.walker.walkRequestOrigin_Requested::Data            0                       # Table walker requests started/completed, data/inst
system.cpu.dtb.stage2_mmu.stage2_tlb.walker.walkRequestOrigin_Requested::Inst            0                       # Table walker requests started/completed, data/inst
system.cpu.dtb.stage2_mmu.stage2_tlb.walker.walkRequestOrigin_Requested::total            0                       # Table walker requests started/completed, data/inst
system.cpu.dtb.stage2_mmu.stage2_tlb.walker.walkRequestOrigin_Completed::Data            0                       # Table walker requests started/completed, data/inst
system.cpu.dtb.stage2_mmu.stage2_tlb.walker.walkRequestOrigin_Completed::Inst            0                       # Table walker requests started/completed, data/inst
system.cpu.dtb.stage2_mmu.stage2_tlb.walker.walkRequestOrigin_Completed::total            0                       # Table walker requests started/completed, data/inst
system.cpu.dtb.stage2_mmu.stage2_tlb.walker.walkRequestOrigin::total            0                       # Table walker requests started/completed, data/inst
system.cpu.dtb.stage2_mmu.stage2_tlb.walker.walks            0                       # Table walker walks requested
system.cpu.dtb.stage2_mmu.stage2_tlb.write_accesses            0                       # DTB write accesses
system.cpu.dtb.stage2_mmu.stage2_tlb.write_hits            0                       # DTB write hits
system.cpu.dtb.stage2_mmu.stage2_tlb.write_misses            0                       # DTB write misses
system.cpu.dtb.walker.walkRequestOrigin_Requested::Data            0                       # Table walker requests started/completed, data/inst
system.cpu.dtb.walker.walkRequestOrigin_Requested::Inst            0                       # Table walker requests started/completed, data/inst
system.cpu.dtb.walker.walkRequestOrigin_Requested::total            0                       # Table walker requests started/completed, data/inst
system.cpu.dtb.walker.walkRequestOrigin_Completed::Data            0                       # Table walker requests started/completed, data/inst
system.cpu.dtb.walker.walkRequestOrigin_Completed::Inst            0                       # Table walker requests started/completed, data/inst
system.cpu.dtb.walker.walkRequestOrigin_Completed::total            0                       # Table walker requests started/completed, data/inst
system.cpu.dtb.walker.walkRequestOrigin::total            0                       # Table walker requests started/completed, data/inst
system.cpu.dtb.walker.walks                         0                       # Table walker walks requested
system.cpu.dtb.write_accesses                       0                       # DTB write accesses
system.cpu.dtb.write_hits                           0                       # DTB write hits
system.cpu.dtb.write_misses                         0                       # DTB write misses
system.cpu.fetch.Branches                    60120793                       # Number of branches that fetch encountered
system.cpu.fetch.CacheLines                  39732586                       # Number of cache lines fetched
system.cpu.fetch.Cycles                      90828646                       # Number of cycles fetch has run and was not squashing or blocked
system.cpu.fetch.IcacheSquashes                162686                       # Number of outstanding Icache misses that were squashed
system.cpu.fetch.IcacheWaitRetryStallCycles           30                       # Number of stall cycles due to full MSHR
system.cpu.fetch.Insts                      259739365                       # Number of instructions fetch has processed
system.cpu.fetch.MiscStallCycles                    2                       # Number of cycles fetch has spent waiting on interrupts, or bad addresses, or out of MSHRs
system.cpu.fetch.SquashCycles                  580602                       # Number of cycles fetch has spent squashing
system.cpu.fetch.branchRate                  0.235302                       # Number of branch fetches per cycle
system.cpu.fetch.icacheStallCycles          153948690                       # Number of cycles fetch is stalled on an Icache miss
system.cpu.fetch.predictedBranches           28395805                       # Number of branches that fetch has predicted taken
system.cpu.fetch.rate                        1.016572                       # Number of inst fetches per cycle
system.cpu.fetch.rateDist::samples          245067669                       # Number of instructions fetched each cycle (Total)
system.cpu.fetch.rateDist::mean              1.189422                       # Number of instructions fetched each cycle (Total)
system.cpu.fetch.rateDist::stdev             2.459221                       # Number of instructions fetched each cycle (Total)
system.cpu.fetch.rateDist::underflows               0      0.00%      0.00% # Number of instructions fetched each cycle (Total)
system.cpu.fetch.rateDist::0                186643452     76.16%     76.16% # Number of instructions fetched each cycle (Total)
system.cpu.fetch.rateDist::1                  6212517      2.54%     78.69% # Number of instructions fetched each cycle (Total)
system.cpu.fetch.rateDist::2                  5241373      2.14%     80.83% # Number of instructions fetched each cycle (Total)
system.cpu.fetch.rateDist::3                  7764281      3.17%     84.00% # Number of instructions fetched each cycle (Total)
system.cpu.fetch.rateDist::4                  9864870      4.03%     88.03% # Number of instructions fetched each cycle (Total)
system.cpu.fetch.rateDist::5                  5470215      2.23%     90.26% # Number of instructions fetched each cycle (Total)
system.cpu.fetch.rateDist::6                  1793728      0.73%     90.99% # Number of instructions fetched each cycle (Total)
system.cpu.fetch.rateDist::7                  2690116      1.10%     92.09% # Number of instructions fetched each cycle (Total)
system.cpu.fetch.rateDist::8                 19387117      7.91%    100.00% # Number of instructions fetched each cycle (Total)
system.cpu.fetch.rateDist::overflows                0      0.00%    100.00% # Number of instructions fetched each cycle (Total)
system.cpu.fetch.rateDist::min_value                0                       # Number of instructions fetched each cycle (Total)
system.cpu.fetch.rateDist::max_value                8                       # Number of instructions fetched each cycle (Total)
system.cpu.fetch.rateDist::total            245067669                       # Number of instructions fetched each cycle (Total)
system.cpu.idleCycles                        10437485                       # Total number of cycles that the CPU has spent unscheduled due to idling
system.cpu.iew.branchMispredicts               368323                       # Number of branch mispredicts detected at execute
system.cpu.iew.exec_branches                 58930934                       # Number of branches executed
system.cpu.iew.exec_nop                        123493                       # number of nop insts executed
system.cpu.iew.exec_rate                     1.130309                       # Inst execution rate
system.cpu.iew.exec_refs                     87234449                       # number of memory reference insts executed
system.cpu.iew.exec_stores                   40530056                       # Number of stores executed
system.cpu.iew.exec_swp                             0                       # number of swp insts executed
system.cpu.iew.iewBlockCycles                  934542                       # Number of cycles IEW is blocking
system.cpu.iew.iewDispLoadInsts              44912075                       # Number of dispatched load instructions
system.cpu.iew.iewDispNonSpecInsts             252167                       # Number of dispatched non-speculative instructions
system.cpu.iew.iewDispSquashedInsts              4358                       # Number of squashed instructions skipped by dispatch
system.cpu.iew.iewDispStoreInsts             40867287                       # Number of dispatched store instructions
system.cpu.iew.iewDispatchedInsts           289182049                       # Number of instructions dispatched to IQ
system.cpu.iew.iewExecLoadInsts              46704393                       # Number of load instructions executed
system.cpu.iew.iewExecSquashedInsts            764424                       # Number of squashed instructions skipped in execute
system.cpu.iew.iewExecutedInsts             288799753                       # Number of executed instructions
system.cpu.iew.iewIQFullEvents                    840                       # Number of times the IQ has become full, causing a stall
system.cpu.iew.iewIdleCycles                        0                       # Number of cycles IEW is idle
system.cpu.iew.iewLSQFullEvents                650711                       # Number of times the LSQ has become full, causing a stall
system.cpu.iew.iewSquashCycles                 289817                       # Number of cycles IEW is squashing
system.cpu.iew.iewUnblockCycles                650915                       # Number of cycles IEW is unblocking
system.cpu.iew.lsq.thread0.blockedLoads             0                       # Number of blocked loads due to partial load-store forwarding
system.cpu.iew.lsq.thread0.cacheBlocked         56847                       # Number of times an access to memory failed due to the cache being blocked
system.cpu.iew.lsq.thread0.forwLoads          2230676                       # Number of loads that had data forwarded from stores
system.cpu.iew.lsq.thread0.ignoredResponses          590                       # Number of memory responses ignored because the instruction is squashed
system.cpu.iew.lsq.thread0.invAddrLoads             0                       # Number of loads ignored due to an invalid address
system.cpu.iew.lsq.thread0.invAddrSwpfs             0                       # Number of software prefetches ignored due to an invalid address
system.cpu.iew.lsq.thread0.memOrderViolation         1375                       # Number of memory ordering violations
system.cpu.iew.lsq.thread0.rescheduledLoads      1956960                       # Number of loads that were rescheduled
system.cpu.iew.lsq.thread0.squashedLoads       976759                       # Number of loads squashed
system.cpu.iew.lsq.thread0.squashedStores       858437                       # Number of stores squashed
system.cpu.iew.memOrderViolationEvents           1375                       # Number of memory order violations
system.cpu.iew.predictedNotTakenIncorrect       164583                       # Number of branches that were predicted not taken incorrectly
system.cpu.iew.predictedTakenIncorrect         203740                       # Number of branches that were predicted taken incorrectly
system.cpu.iew.wb_consumers                 271043804                       # num instructions consuming a value
system.cpu.iew.wb_count                     286422631                       # cumulative count of insts written-back
system.cpu.iew.wb_fanout                     0.523381                       # average fanout of values written-back
system.cpu.iew.wb_producers                 141859221                       # num instructions producing a value
system.cpu.iew.wb_rate                       1.121005                       # insts written-back per cycle
system.cpu.iew.wb_sent                      286462250                       # cumulative count of insts sent to commit
system.cpu.int_regfile_reads                322688930                       # number of integer regfile reads
system.cpu.int_regfile_writes               192531620                       # number of integer regfile writes
system.cpu.ipc                               0.978454                       # IPC: Instructions Per Cycle
system.cpu.ipc_total                         0.978454                       # IPC: Total IPC of All Threads
system.cpu.iq.FU_type_0::No_OpClass            181095      0.06%      0.06% # Type of FU issued
system.cpu.iq.FU_type_0::IntAlu             198580117     68.58%     68.64% # Type of FU issued
system.cpu.iq.FU_type_0::IntMult              1611505      0.56%     69.20% # Type of FU issued
system.cpu.iq.FU_type_0::IntDiv                     3      0.00%     69.20% # Type of FU issued
system.cpu.iq.FU_type_0::FloatAdd                   0      0.00%     69.20% # Type of FU issued
system.cpu.iq.FU_type_0::FloatCmp                   0      0.00%     69.20% # Type of FU issued
system.cpu.iq.FU_type_0::FloatCvt                   0      0.00%     69.20% # Type of FU issued
system.cpu.iq.FU_type_0::FloatMult                  0      0.00%     69.20% # Type of FU issued
system.cpu.iq.FU_type_0::FloatMultAcc               0      0.00%     69.20% # Type of FU issued
system.cpu.iq.FU_type_0::FloatDiv                   0      0.00%     69.20% # Type of FU issued
system.cpu.iq.FU_type_0::FloatMisc                  0      0.00%     69.20% # Type of FU issued
system.cpu.iq.FU_type_0::FloatSqrt                  0      0.00%     69.20% # Type of FU issued
system.cpu.iq.FU_type_0::SimdAdd               422460      0.15%     69.34% # Type of FU issued
system.cpu.iq.FU_type_0::SimdAddAcc                 0      0.00%     69.34% # Type of FU issued
system.cpu.iq.FU_type_0::SimdAlu               422457      0.15%     69.49% # Type of FU issued
system.cpu.iq.FU_type_0::SimdCmp               362200      0.13%     69.61% # Type of FU issued
system.cpu.iq.FU_type_0::SimdCvt                    0      0.00%     69.61% # Type of FU issued
system.cpu.iq.FU_type_0::SimdMisc              488683      0.17%     69.78% # Type of FU issued
system.cpu.iq.FU_type_0::SimdMult                   0      0.00%     69.78% # Type of FU issued
system.cpu.iq.FU_type_0::SimdMultAcc                0      0.00%     69.78% # Type of FU issued
system.cpu.iq.FU_type_0::SimdShift                  0      0.00%     69.78% # Type of FU issued
system.cpu.iq.FU_type_0::SimdShiftAcc               0      0.00%     69.78% # Type of FU issued
system.cpu.iq.FU_type_0::SimdDiv                    0      0.00%     69.78% # Type of FU issued
system.cpu.iq.FU_type_0::SimdSqrt                   0      0.00%     69.78% # Type of FU issued
system.cpu.iq.FU_type_0::SimdFloatAdd               0      0.00%     69.78% # Type of FU issued
system.cpu.iq.FU_type_0::SimdFloatAlu               0      0.00%     69.78% # Type of FU issued
system.cpu.iq.FU_type_0::SimdFloatCmp               0      0.00%     69.78% # Type of FU issued
system.cpu.iq.FU_type_0::SimdFloatCvt               0      0.00%     69.78% # Type of FU issued
system.cpu.iq.FU_type_0::SimdFloatDiv               0      0.00%     69.78% # Type of FU issued
system.cpu.iq.FU_type_0::SimdFloatMisc              0      0.00%     69.78% # Type of FU issued
system.cpu.iq.FU_type_0::SimdFloatMult              0      0.00%     69.78% # Type of FU issued
system.cpu.iq.FU_type_0::SimdFloatMultAcc            0      0.00%     69.78% # Type of FU issued
system.cpu.iq.FU_type_0::SimdFloatSqrt              0      0.00%     69.78% # Type of FU issued
system.cpu.iq.FU_type_0::SimdReduceAdd              0      0.00%     69.78% # Type of FU issued
system.cpu.iq.FU_type_0::SimdReduceAlu              0      0.00%     69.78% # Type of FU issued
system.cpu.iq.FU_type_0::SimdReduceCmp              0      0.00%     69.78% # Type of FU issued
system.cpu.iq.FU_type_0::SimdFloatReduceAdd            0      0.00%     69.78% # Type of FU issued
system.cpu.iq.FU_type_0::SimdFloatReduceCmp            0      0.00%     69.78% # Type of FU issued
system.cpu.iq.FU_type_0::SimdAes                    0      0.00%     69.78% # Type of FU issued
system.cpu.iq.FU_type_0::SimdAesMix                 0      0.00%     69.78% # Type of FU issued
system.cpu.iq.FU_type_0::SimdSha1Hash               0      0.00%     69.78% # Type of FU issued
system.cpu.iq.FU_type_0::SimdSha1Hash2              0      0.00%     69.78% # Type of FU issued
system.cpu.iq.FU_type_0::SimdSha256Hash             0      0.00%     69.78% # Type of FU issued
system.cpu.iq.FU_type_0::SimdSha256Hash2            0      0.00%     69.78% # Type of FU issued
system.cpu.iq.FU_type_0::SimdShaSigma2              0      0.00%     69.78% # Type of FU issued
system.cpu.iq.FU_type_0::SimdShaSigma3              0      0.00%     69.78% # Type of FU issued
system.cpu.iq.FU_type_0::SimdPredAlu                0      0.00%     69.78% # Type of FU issued
system.cpu.iq.FU_type_0::MemRead             46922844     16.20%     85.99% # Type of FU issued
system.cpu.iq.FU_type_0::MemWrite            40572814     14.01%    100.00% # Type of FU issued
system.cpu.iq.FU_type_0::FloatMemRead               0      0.00%    100.00% # Type of FU issued
system.cpu.iq.FU_type_0::FloatMemWrite              0      0.00%    100.00% # Type of FU issued
system.cpu.iq.FU_type_0::IprAccess                  0      0.00%    100.00% # Type of FU issued
system.cpu.iq.FU_type_0::InstPrefetch               0      0.00%    100.00% # Type of FU issued
system.cpu.iq.FU_type_0::total              289564178                       # Type of FU issued
system.cpu.iq.fp_alu_accesses                       0                       # Number of floating point alu accesses
system.cpu.iq.fp_inst_queue_reads                   0                       # Number of floating instruction queue reads
system.cpu.iq.fp_inst_queue_wakeup_accesses            0                       # Number of floating instruction queue wakeup accesses
system.cpu.iq.fp_inst_queue_writes                  0                       # Number of floating instruction queue writes
system.cpu.iq.fu_busy_cnt                     4330389                       # FU busy when requested
system.cpu.iq.fu_busy_rate                   0.014955                       # FU busy rate (busy events/executed inst)
system.cpu.iq.fu_full::No_OpClass                   0      0.00%      0.00% # attempts to use FU when none available
system.cpu.iq.fu_full::IntAlu                 1131260     26.12%     26.12% # attempts to use FU when none available
system.cpu.iq.fu_full::IntMult                      0      0.00%     26.12% # attempts to use FU when none available
system.cpu.iq.fu_full::IntDiv                       0      0.00%     26.12% # attempts to use FU when none available
system.cpu.iq.fu_full::FloatAdd                     0      0.00%     26.12% # attempts to use FU when none available
system.cpu.iq.fu_full::FloatCmp                     0      0.00%     26.12% # attempts to use FU when none available
system.cpu.iq.fu_full::FloatCvt                     0      0.00%     26.12% # attempts to use FU when none available
system.cpu.iq.fu_full::FloatMult                    0      0.00%     26.12% # attempts to use FU when none available
system.cpu.iq.fu_full::FloatMultAcc                 0      0.00%     26.12% # attempts to use FU when none available
system.cpu.iq.fu_full::FloatDiv                     0      0.00%     26.12% # attempts to use FU when none available
system.cpu.iq.fu_full::FloatMisc                    0      0.00%     26.12% # attempts to use FU when none available
system.cpu.iq.fu_full::FloatSqrt                    0      0.00%     26.12% # attempts to use FU when none available
system.cpu.iq.fu_full::SimdAdd                      0      0.00%     26.12% # attempts to use FU when none available
system.cpu.iq.fu_full::SimdAddAcc                   0      0.00%     26.12% # attempts to use FU when none available
system.cpu.iq.fu_full::SimdAlu                      2      0.00%     26.12% # attempts to use FU when none available
system.cpu.iq.fu_full::SimdCmp                      2      0.00%     26.12% # attempts to use FU when none available
system.cpu.iq.fu_full::SimdCvt                      0      0.00%     26.12% # attempts to use FU when none available
system.cpu.iq.fu_full::SimdMisc                     0      0.00%     26.12% # attempts to use FU when none available
system.cpu.iq.fu_full::SimdMult                     0      0.00%     26.12% # attempts to use FU when none available
system.cpu.iq.fu_full::SimdMultAcc                  0      0.00%     26.12% # attempts to use FU when none available
system.cpu.iq.fu_full::SimdShift                    0      0.00%     26.12% # attempts to use FU when none available
system.cpu.iq.fu_full::SimdShiftAcc                 0      0.00%     26.12% # attempts to use FU when none available
system.cpu.iq.fu_full::SimdDiv                      0      0.00%     26.12% # attempts to use FU when none available
system.cpu.iq.fu_full::SimdSqrt                     0      0.00%     26.12% # attempts to use FU when none available
system.cpu.iq.fu_full::SimdFloatAdd                 0      0.00%     26.12% # attempts to use FU when none available
system.cpu.iq.fu_full::SimdFloatAlu                 0      0.00%     26.12% # attempts to use FU when none available
system.cpu.iq.fu_full::SimdFloatCmp                 0      0.00%     26.12% # attempts to use FU when none available
system.cpu.iq.fu_full::SimdFloatCvt                 0      0.00%     26.12% # attempts to use FU when none available
system.cpu.iq.fu_full::SimdFloatDiv                 0      0.00%     26.12% # attempts to use FU when none available
system.cpu.iq.fu_full::SimdFloatMisc                0      0.00%     26.12% # attempts to use FU when none available
system.cpu.iq.fu_full::SimdFloatMult                0      0.00%     26.12% # attempts to use FU when none available
system.cpu.iq.fu_full::SimdFloatMultAcc             0      0.00%     26.12% # attempts to use FU when none available
system.cpu.iq.fu_full::SimdFloatSqrt                0      0.00%     26.12% # attempts to use FU when none available
system.cpu.iq.fu_full::SimdReduceAdd                0      0.00%     26.12% # attempts to use FU when none available
system.cpu.iq.fu_full::SimdReduceAlu                0      0.00%     26.12% # attempts to use FU when none available
system.cpu.iq.fu_full::SimdReduceCmp                0      0.00%     26.12% # attempts to use FU when none available
system.cpu.iq.fu_full::SimdFloatReduceAdd            0      0.00%     26.12% # attempts to use FU when none available
system.cpu.iq.fu_full::SimdFloatReduceCmp            0      0.00%     26.12% # attempts to use FU when none available
system.cpu.iq.fu_full::SimdAes                      0      0.00%     26.12% # attempts to use FU when none available
system.cpu.iq.fu_full::SimdAesMix                   0      0.00%     26.12% # attempts to use FU when none available
system.cpu.iq.fu_full::SimdSha1Hash                 0      0.00%     26.12% # attempts to use FU when none available
system.cpu.iq.fu_full::SimdSha1Hash2                0      0.00%     26.12% # attempts to use FU when none available
system.cpu.iq.fu_full::SimdSha256Hash               0      0.00%     26.12% # attempts to use FU when none available
system.cpu.iq.fu_full::SimdSha256Hash2              0      0.00%     26.12% # attempts to use FU when none available
system.cpu.iq.fu_full::SimdShaSigma2                0      0.00%     26.12% # attempts to use FU when none available
system.cpu.iq.fu_full::SimdShaSigma3                0      0.00%     26.12% # attempts to use FU when none available
system.cpu.iq.fu_full::SimdPredAlu                  0      0.00%     26.12% # attempts to use FU when none available
system.cpu.iq.fu_full::MemRead                 807061     18.64%     44.76% # attempts to use FU when none available
system.cpu.iq.fu_full::MemWrite               2392064     55.24%    100.00% # attempts to use FU when none available
system.cpu.iq.fu_full::FloatMemRead                 0      0.00%    100.00% # attempts to use FU when none available
system.cpu.iq.fu_full::FloatMemWrite                0      0.00%    100.00% # attempts to use FU when none available
system.cpu.iq.fu_full::IprAccess                    0      0.00%    100.00% # attempts to use FU when none available
system.cpu.iq.fu_full::InstPrefetch                 0      0.00%    100.00% # attempts to use FU when none available
system.cpu.iq.int_alu_accesses              289175920                       # Number of integer alu accesses
system.cpu.iq.int_inst_queue_reads          819588819                       # Number of integer instruction queue reads
system.cpu.iq.int_inst_queue_wakeup_accesses    282208387                       # Number of integer instruction queue wakeup accesses
system.cpu.iq.int_inst_queue_writes         292862970                       # Number of integer instruction queue writes
system.cpu.iq.iqInstsAdded                  288806389                       # Number of instructions added to the IQ (excludes non-spec)
system.cpu.iq.iqInstsIssued                 289564178                       # Number of instructions issued
system.cpu.iq.iqNonSpecInstsAdded              252167                       # Number of non-speculative instructions added to the IQ
system.cpu.iq.iqSquashedInstsExamined         8168629                       # Number of squashed instructions iterated over during squash; mainly for profiling
system.cpu.iq.iqSquashedInstsIssued              5956                       # Number of squashed instructions issued
system.cpu.iq.iqSquashedNonSpecRemoved           5013                       # Number of squashed non-spec instructions that were removed
system.cpu.iq.iqSquashedOperandsExamined      4051498                       # Number of squashed operands that are examined and possibly removed from graph
system.cpu.iq.issued_per_cycle::samples     245067669                       # Number of insts issued each cycle
system.cpu.iq.issued_per_cycle::mean         1.181568                       # Number of insts issued each cycle
system.cpu.iq.issued_per_cycle::stdev        1.864417                       # Number of insts issued each cycle
system.cpu.iq.issued_per_cycle::underflows            0      0.00%      0.00% # Number of insts issued each cycle
system.cpu.iq.issued_per_cycle::0           148822892     60.73%     60.73% # Number of insts issued each cycle
system.cpu.iq.issued_per_cycle::1            24208915      9.88%     70.61% # Number of insts issued each cycle
system.cpu.iq.issued_per_cycle::2            22711226      9.27%     79.87% # Number of insts issued each cycle
system.cpu.iq.issued_per_cycle::3            16631364      6.79%     86.66% # Number of insts issued each cycle
system.cpu.iq.issued_per_cycle::4            11954021      4.88%     91.54% # Number of insts issued each cycle
system.cpu.iq.issued_per_cycle::5             8144649      3.32%     94.86% # Number of insts issued each cycle
system.cpu.iq.issued_per_cycle::6             8598956      3.51%     98.37% # Number of insts issued each cycle
system.cpu.iq.issued_per_cycle::7             2059514      0.84%     99.21% # Number of insts issued each cycle
system.cpu.iq.issued_per_cycle::8             1936132      0.79%    100.00% # Number of insts issued each cycle
system.cpu.iq.issued_per_cycle::overflows            0      0.00%    100.00% # Number of insts issued each cycle
system.cpu.iq.issued_per_cycle::min_value            0                       # Number of insts issued each cycle
system.cpu.iq.issued_per_cycle::max_value            8                       # Number of insts issued each cycle
system.cpu.iq.issued_per_cycle::total       245067669                       # Number of insts issued each cycle
system.cpu.iq.rate                           1.133301                       # Inst issue rate
system.cpu.iq.vec_alu_accesses                4537552                       # Number of vector alu accesses
system.cpu.iq.vec_inst_queue_reads            8943550                       # Number of vector instruction queue reads
system.cpu.iq.vec_inst_queue_wakeup_accesses      4214244                       # Number of vector instruction queue wakeup accesses
system.cpu.iq.vec_inst_queue_writes           4365589                       # Number of vector instruction queue writes
system.cpu.itb.accesses                             0                       # DTB accesses
system.cpu.itb.align_faults                         0                       # Number of TLB faults due to alignment restrictions
system.cpu.itb.domain_faults                        0                       # Number of TLB faults due to domain restrictions
system.cpu.itb.flush_entries                        0                       # Number of entries that have been flushed from TLB
system.cpu.itb.flush_tlb                            0                       # Number of times complete TLB was flushed
system.cpu.itb.flush_tlb_asid                       0                       # Number of times TLB was flushed by ASID
system.cpu.itb.flush_tlb_mva                        0                       # Number of times TLB was flushed by MVA
system.cpu.itb.flush_tlb_mva_asid                   0                       # Number of times TLB was flushed by MVA & ASID
system.cpu.itb.hits                                 0                       # DTB hits
system.cpu.itb.inst_accesses                        0                       # ITB inst accesses
system.cpu.itb.inst_hits                            0                       # ITB inst hits
system.cpu.itb.inst_misses                          0                       # ITB inst misses
system.cpu.itb.misses                               0                       # DTB misses
system.cpu.itb.perms_faults                         0                       # Number of TLB faults due to permissions restrictions
system.cpu.itb.prefetch_faults                      0                       # Number of TLB faults due to prefetch
system.cpu.itb.read_accesses                        0                       # DTB read accesses
system.cpu.itb.read_hits                            0                       # DTB read hits
system.cpu.itb.read_misses                          0                       # DTB read misses
system.cpu.itb.stage2_mmu.stage2_tlb.accesses            0                       # DTB accesses
system.cpu.itb.stage2_mmu.stage2_tlb.align_faults            0                       # Number of TLB faults due to alignment restrictions
system.cpu.itb.stage2_mmu.stage2_tlb.domain_faults            0                       # Number of TLB faults due to domain restrictions
system.cpu.itb.stage2_mmu.stage2_tlb.flush_entries            0                       # Number of entries that have been flushed from TLB
system.cpu.itb.stage2_mmu.stage2_tlb.flush_tlb            0                       # Number of times complete TLB was flushed
system.cpu.itb.stage2_mmu.stage2_tlb.flush_tlb_asid            0                       # Number of times TLB was flushed by ASID
system.cpu.itb.stage2_mmu.stage2_tlb.flush_tlb_mva            0                       # Number of times TLB was flushed by MVA
system.cpu.itb.stage2_mmu.stage2_tlb.flush_tlb_mva_asid            0                       # Number of times TLB was flushed by MVA & ASID
system.cpu.itb.stage2_mmu.stage2_tlb.hits            0                       # DTB hits
system.cpu.itb.stage2_mmu.stage2_tlb.inst_accesses            0                       # ITB inst accesses
system.cpu.itb.stage2_mmu.stage2_tlb.inst_hits            0                       # ITB inst hits
system.cpu.itb.stage2_mmu.stage2_tlb.inst_misses            0                       # ITB inst misses
system.cpu.itb.stage2_mmu.stage2_tlb.misses            0                       # DTB misses
system.cpu.itb.stage2_mmu.stage2_tlb.perms_faults            0                       # Number of TLB faults due to permissions restrictions
system.cpu.itb.stage2_mmu.stage2_tlb.prefetch_faults            0                       # Number of TLB faults due to prefetch
system.cpu.itb.stage2_mmu.stage2_tlb.read_accesses            0                       # DTB read accesses
system.cpu.itb.stage2_mmu.stage2_tlb.read_hits            0                       # DTB read hits
system.cpu.itb.stage2_mmu.stage2_tlb.read_misses            0                       # DTB read misses
system.cpu.itb.stage2_mmu.stage2_tlb.walker.walkRequestOrigin_Requested::Data            0                       # Table walker requests started/completed, data/inst
system.cpu.itb.stage2_mmu.stage2_tlb.walker.walkRequestOrigin_Requested::Inst            0                       # Table walker requests started/completed, data/inst
system.cpu.itb.stage2_mmu.stage2_tlb.walker.walkRequestOrigin_Requested::total            0                       # Table walker requests started/completed, data/inst
system.cpu.itb.stage2_mmu.stage2_tlb.walker.walkRequestOrigin_Completed::Data            0                       # Table walker requests started/completed, data/inst
system.cpu.itb.stage2_mmu.stage2_tlb.walker.walkRequestOrigin_Completed::Inst            0                       # Table walker requests started/completed, data/inst
system.cpu.itb.stage2_mmu.stage2_tlb.walker.walkRequestOrigin_Completed::total            0                       # Table walker requests started/completed, data/inst
system.cpu.itb.stage2_mmu.stage2_tlb.walker.walkRequestOrigin::total            0                       # Table walker requests started/completed, data/inst
system.cpu.itb.stage2_mmu.stage2_tlb.walker.walks            0                       # Table walker walks requested
system.cpu.itb.stage2_mmu.stage2_tlb.write_accesses            0                       # DTB write accesses
system.cpu.itb.stage2_mmu.stage2_tlb.write_hits            0                       # DTB write hits
system.cpu.itb.stage2_mmu.stage2_tlb.write_misses            0                       # DTB write misses
system.cpu.itb.walker.walkRequestOrigin_Requested::Data            0                       # Table walker requests started/completed, data/inst
system.cpu.itb.walker.walkRequestOrigin_Requested::Inst            0                       # Table walker requests started/completed, data/inst
system.cpu.itb.walker.walkRequestOrigin_Requested::total            0                       # Table walker requests started/completed, data/inst
system.cpu.itb.walker.walkRequestOrigin_Completed::Data            0                       # Table walker requests started/completed, data/inst
system.cpu.itb.walker.walkRequestOrigin_Completed::Inst            0                       # Table walker requests started/completed, data/inst
system.cpu.itb.walker.walkRequestOrigin_Completed::total            0                       # Table walker requests started/completed, data/inst
system.cpu.itb.walker.walkRequestOrigin::total            0                       # Table walker requests started/completed, data/inst
system.cpu.itb.walker.walks                         0                       # Table walker walks requested
system.cpu.itb.write_accesses                       0                       # DTB write accesses
system.cpu.itb.write_hits                           0                       # DTB write hits
system.cpu.itb.write_misses                         0                       # DTB write misses
system.cpu.memDep0.conflictingLoads           1385165                       # Number of conflicting loads.
system.cpu.memDep0.conflictingStores           878103                       # Number of conflicting stores.
system.cpu.memDep0.insertedLoads             44912075                       # Number of loads inserted to the mem dependence unit.
system.cpu.memDep0.insertedStores            40867287                       # Number of stores inserted to the mem dependence unit.
system.cpu.misc_regfile_reads               195824546                       # number of misc regfile reads
system.cpu.misc_regfile_writes                 987649                       # number of misc regfile writes
system.cpu.numCycles                        255505154                       # number of cpu cycles simulated
system.cpu.numWorkItemsCompleted                    0                       # number of work items this cpu completed
system.cpu.numWorkItemsStarted                      0                       # number of work items this cpu started
system.cpu.rename.BlockCycles                 1480941                       # Number of cycles rename is blocking
system.cpu.rename.CommittedMaps             306370285                       # Number of HB maps that are committed
system.cpu.rename.IQFullEvents                   5385                       # Number of times rename has blocked due to IQ full
system.cpu.rename.IdleCycles                141927577                       # Number of cycles rename is idle
system.cpu.rename.LQFullEvents                     21                       # Number of times rename has blocked due to LQ full
system.cpu.rename.ROBFullEvents                    12                       # Number of times rename has blocked due to ROB full
system.cpu.rename.RenameLookups             467264605                       # Number of register rename lookups that rename has made
system.cpu.rename.RenamedInsts              290413390                       # Number of instructions processed by rename
system.cpu.rename.RenamedOperands           318016938                       # Number of destination operands rename has renamed
system.cpu.rename.RunCycles                  56800912                       # Number of cycles rename is running
system.cpu.rename.SQFullEvents                3882639                       # Number of times rename has blocked due to SQ full
system.cpu.rename.SquashCycles                 289817                       # Number of cycles rename is squashing
system.cpu.rename.UnblockCycles               4930355                       # Number of cycles rename is unblocking
system.cpu.rename.UndoneMaps                 11646599                       # Number of HB maps that are undone due to squashing
system.cpu.rename.int_rename_lookups        324868523                       # Number of integer rename lookups
system.cpu.rename.serializeStallCycles       39638067                       # count of cycles rename stalled for serializing inst
system.cpu.rename.serializingInsts             847543                       # count of serializing insts renamed
system.cpu.rename.skidInsts                   3997988                       # count of insts added to the skid buffer
system.cpu.rename.tempSerializingInsts         252196                       # count of temporary serializing insts renamed
system.cpu.rename.vec_rename_lookups          5291787                       # Number of vector rename lookups
system.cpu.rob.rob_reads                    521672744                       # The number of ROB reads
system.cpu.rob.rob_writes                   579502433                       # The number of ROB writes
system.cpu.timesIdled                         3398170                       # Number of times that the entire CPU went into an idle state and unscheduled itself
system.cpu.vec_regfile_reads                  5174025                       # number of vector regfile reads
system.cpu.vec_regfile_writes                 2180916                       # number of vector regfile writes
system.cpu.workload.numSyscalls                   241                       # Number of system calls
system.membus.snoop_filter.hit_multi_requests            0                       # Number of requests hitting in the snoop filter with multiple (>1) holders of the requested data.
system.membus.snoop_filter.hit_multi_snoops            0                       # Number of snoops hitting in the snoop filter with multiple (>1) holders of the requested data.
system.membus.snoop_filter.hit_single_requests       284714                       # Number of requests hitting in the snoop filter with a single holder of the requested data.
system.membus.snoop_filter.hit_single_snoops            0                       # Number of snoops hitting in the snoop filter with a single holder of the requested data.
system.membus.snoop_filter.tot_requests        586057                       # Total number of requests made to the snoop filter.
system.membus.snoop_filter.tot_snoops               0                       # Total number of snoops made to the snoop filter.
system.tol2bus.snoop_filter.hit_multi_requests            1                       # Number of requests hitting in the snoop filter with multiple (>1) holders of the requested data.
system.tol2bus.snoop_filter.hit_multi_snoops            0                       # Number of snoops hitting in the snoop filter with multiple (>1) holders of the requested data.
system.tol2bus.snoop_filter.hit_single_requests      5803653                       # Number of requests hitting in the snoop filter with a single holder of the requested data.
system.tol2bus.snoop_filter.hit_single_snoops        23646                       # Number of snoops hitting in the snoop filter with a single holder of the requested data.
system.tol2bus.snoop_filter.tot_requests     11607799                       # Total number of requests made to the snoop filter.
system.tol2bus.snoop_filter.tot_snoops          23646                       # Total number of snoops made to the snoop filter.
system.membus.trans_dist::ReadResp              69361                       # Transaction distribution
system.membus.trans_dist::WritebackDirty       284277                       # Transaction distribution
system.membus.trans_dist::CleanEvict              437                       # Transaction distribution
system.membus.trans_dist::ReadExReq            231967                       # Transaction distribution
system.membus.trans_dist::ReadExResp           231967                       # Transaction distribution
system.membus.trans_dist::ReadSharedReq         69361                       # Transaction distribution
system.membus.trans_dist::InvalidateReq            15                       # Transaction distribution
system.membus.pkt_count_system.l2.mem_side::system.mem_ctrls.port       887385                       # Packet count per connected master and slave (bytes)
system.membus.pkt_count::total                 887385                       # Packet count per connected master and slave (bytes)
system.membus.pkt_size_system.l2.mem_side::system.mem_ctrls.port     37478720                       # Cumulative packet size per connected master and slave (bytes)
system.membus.pkt_size::total                37478720                       # Cumulative packet size per connected master and slave (bytes)
system.membus.snoops                                0                       # Total snoops (count)
system.membus.snoopTraffic                          0                       # Total snoop traffic (bytes)
system.membus.snoop_fanout::samples            301343                       # Request fanout histogram
system.membus.snoop_fanout::mean                    0                       # Request fanout histogram
system.membus.snoop_fanout::stdev                   0                       # Request fanout histogram
system.membus.snoop_fanout::underflows              0      0.00%      0.00% # Request fanout histogram
system.membus.snoop_fanout::0                  301343    100.00%    100.00% # Request fanout histogram
system.membus.snoop_fanout::1                       0      0.00%    100.00% # Request fanout histogram
system.membus.snoop_fanout::overflows               0      0.00%    100.00% # Request fanout histogram
system.membus.snoop_fanout::min_value               0                       # Request fanout histogram
system.membus.snoop_fanout::max_value               0                       # Request fanout histogram
system.membus.snoop_fanout::total              301343                       # Request fanout histogram
system.membus.reqLayer0.occupancy          1769885500                       # Layer occupancy (ticks)
system.membus.reqLayer0.utilization               1.4                       # Layer utilization (%)
system.membus.respLayer1.occupancy         1583412000                       # Layer occupancy (ticks)
system.membus.respLayer1.utilization              1.2                       # Layer utilization (%)
system.membus.power_state.pwrStateResidencyTicks::UNDEFINED 127752576500                       # Cumulative time (in ticks) in various power states
system.tol2bus.trans_dist::ReadResp           5561847                       # Transaction distribution
system.tol2bus.trans_dist::WritebackDirty       767709                       # Transaction distribution
system.tol2bus.trans_dist::WritebackClean      5153712                       # Transaction distribution
system.tol2bus.trans_dist::CleanEvict          190526                       # Transaction distribution
system.tol2bus.trans_dist::ReadExReq           242284                       # Transaction distribution
system.tol2bus.trans_dist::ReadExResp          242284                       # Transaction distribution
system.tol2bus.trans_dist::ReadCleanReq       5153949                       # Transaction distribution
system.tol2bus.trans_dist::ReadSharedReq       407898                       # Transaction distribution
system.tol2bus.trans_dist::InvalidateReq           15                       # Transaction distribution
system.tol2bus.trans_dist::InvalidateResp           15                       # Transaction distribution
system.tol2bus.pkt_count_system.cpu.icache.mem_side::system.l2.cpu_side     15461610                       # Packet count per connected master and slave (bytes)
system.tol2bus.pkt_count_system.cpu.dcache.mem_side::system.l2.cpu_side      1950335                       # Packet count per connected master and slave (bytes)
system.tol2bus.pkt_count::total              17411945                       # Packet count per connected master and slave (bytes)
system.tol2bus.pkt_size_system.cpu.icache.mem_side::system.l2.cpu_side    659690304                       # Cumulative packet size per connected master and slave (bytes)
system.tol2bus.pkt_size_system.cpu.dcache.mem_side::system.l2.cpu_side     72551296                       # Cumulative packet size per connected master and slave (bytes)
system.tol2bus.pkt_size::total              732241600                       # Cumulative packet size per connected master and slave (bytes)
system.tol2bus.snoops                          308294                       # Total snoops (count)
system.tol2bus.snoopTraffic                  18193728                       # Total snoop traffic (bytes)
system.tol2bus.snoop_fanout::samples          6112440                       # Request fanout histogram
system.tol2bus.snoop_fanout::mean            0.003869                       # Request fanout histogram
system.tol2bus.snoop_fanout::stdev           0.062078                       # Request fanout histogram
system.tol2bus.snoop_fanout::underflows             0      0.00%      0.00% # Request fanout histogram
system.tol2bus.snoop_fanout::0                6088793     99.61%     99.61% # Request fanout histogram
system.tol2bus.snoop_fanout::1                  23647      0.39%    100.00% # Request fanout histogram
system.tol2bus.snoop_fanout::2                      0      0.00%    100.00% # Request fanout histogram
system.tol2bus.snoop_fanout::overflows              0      0.00%    100.00% # Request fanout histogram
system.tol2bus.snoop_fanout::min_value              0                       # Request fanout histogram
system.tol2bus.snoop_fanout::max_value              1                       # Request fanout histogram
system.tol2bus.snoop_fanout::total            6112440                       # Request fanout histogram
system.tol2bus.reqLayer0.occupancy        11441043500                       # Layer occupancy (ticks)
system.tol2bus.reqLayer0.utilization              9.0                       # Layer utilization (%)
system.tol2bus.respLayer1.occupancy         975280500                       # Layer occupancy (ticks)
system.tol2bus.respLayer1.utilization             0.8                       # Layer utilization (%)
system.tol2bus.respLayer0.occupancy        7730991364                       # Layer occupancy (ticks)
system.tol2bus.respLayer0.utilization             6.1                       # Layer utilization (%)
system.tol2bus.power_state.pwrStateResidencyTicks::UNDEFINED 127752576500                       # Cumulative time (in ticks) in various power states
system.voltage_domain.voltage                       1                       # Voltage in Volts
system.clk_domain.clock                          1000                       # Clock period in ticks
system.l2.demand_hits::.cpu.inst              5153404                       # number of demand (read+write) hits
system.l2.demand_hits::.cpu.data               349399                       # number of demand (read+write) hits
system.l2.demand_hits::total                  5502803                       # number of demand (read+write) hits
system.l2.overall_hits::.cpu.inst             5153404                       # number of overall hits
system.l2.overall_hits::.cpu.data              349399                       # number of overall hits
system.l2.overall_hits::total                 5502803                       # number of overall hits
system.l2.demand_misses::.cpu.inst                545                       # number of demand (read+write) misses
system.l2.demand_misses::.cpu.data             300783                       # number of demand (read+write) misses
system.l2.demand_misses::total                 301328                       # number of demand (read+write) misses
system.l2.overall_misses::.cpu.inst               545                       # number of overall misses
system.l2.overall_misses::.cpu.data            300783                       # number of overall misses
system.l2.overall_misses::total                301328                       # number of overall misses
system.l2.demand_miss_latency::.cpu.inst     42992000                       # number of demand (read+write) miss cycles
system.l2.demand_miss_latency::.cpu.data  26710311000                       # number of demand (read+write) miss cycles
system.l2.demand_miss_latency::total      26753303000                       # number of demand (read+write) miss cycles
system.l2.overall_miss_latency::.cpu.inst     42992000                       # number of overall miss cycles
system.l2.overall_miss_latency::.cpu.data  26710311000                       # number of overall miss cycles
system.l2.overall_miss_latency::total     26753303000                       # number of overall miss cycles
system.l2.demand_accesses::.cpu.inst          5153949                       # number of demand (read+write) accesses
system.l2.demand_accesses::.cpu.data           650182                       # number of demand (read+write) accesses
system.l2.demand_accesses::total              5804131                       # number of demand (read+write) accesses
system.l2.overall_accesses::.cpu.inst         5153949                       # number of overall (read+write) accesses
system.l2.overall_accesses::.cpu.data          650182                       # number of overall (read+write) accesses
system.l2.overall_accesses::total             5804131                       # number of overall (read+write) accesses
system.l2.demand_miss_rate::.cpu.inst        0.000106                       # miss rate for demand accesses
system.l2.demand_miss_rate::.cpu.data        0.462614                       # miss rate for demand accesses
system.l2.demand_miss_rate::total            0.051916                       # miss rate for demand accesses
system.l2.overall_miss_rate::.cpu.inst       0.000106                       # miss rate for overall accesses
system.l2.overall_miss_rate::.cpu.data       0.462614                       # miss rate for overall accesses
system.l2.overall_miss_rate::total           0.051916                       # miss rate for overall accesses
system.l2.demand_avg_miss_latency::.cpu.inst 78884.403670                       # average overall miss latency
system.l2.demand_avg_miss_latency::.cpu.data 88802.595226                       # average overall miss latency
system.l2.demand_avg_miss_latency::total 88784.656587                       # average overall miss latency
system.l2.overall_avg_miss_latency::.cpu.inst 78884.403670                       # average overall miss latency
system.l2.overall_avg_miss_latency::.cpu.data 88802.595226                       # average overall miss latency
system.l2.overall_avg_miss_latency::total 88784.656587                       # average overall miss latency
system.l2.blocked_cycles::no_mshrs                  0                       # number of cycles access was blocked
system.l2.blocked_cycles::no_targets                0                       # number of cycles access was blocked
system.l2.blocked::no_mshrs                         0                       # number of cycles access was blocked
system.l2.blocked::no_targets                       0                       # number of cycles access was blocked
system.l2.avg_blocked_cycles::no_mshrs            nan                       # average number of cycles each access was blocked
system.l2.avg_blocked_cycles::no_targets          nan                       # average number of cycles each access was blocked
system.l2.writebacks::.writebacks              284277                       # number of writebacks
system.l2.writebacks::total                    284277                       # number of writebacks
system.l2.demand_mshr_misses::.cpu.inst           545                       # number of demand (read+write) MSHR misses
system.l2.demand_mshr_misses::.cpu.data        300783                       # number of demand (read+write) MSHR misses
system.l2.demand_mshr_misses::total            301328                       # number of demand (read+write) MSHR misses
system.l2.overall_mshr_misses::.cpu.inst          545                       # number of overall MSHR misses
system.l2.overall_mshr_misses::.cpu.data       300783                       # number of overall MSHR misses
system.l2.overall_mshr_misses::total           301328                       # number of overall MSHR misses
system.l2.demand_mshr_miss_latency::.cpu.inst     37542000                       # number of demand (read+write) MSHR miss cycles
system.l2.demand_mshr_miss_latency::.cpu.data  23702481000                       # number of demand (read+write) MSHR miss cycles
system.l2.demand_mshr_miss_latency::total  23740023000                       # number of demand (read+write) MSHR miss cycles
system.l2.overall_mshr_miss_latency::.cpu.inst     37542000                       # number of overall MSHR miss cycles
system.l2.overall_mshr_miss_latency::.cpu.data  23702481000                       # number of overall MSHR miss cycles
system.l2.overall_mshr_miss_latency::total  23740023000                       # number of overall MSHR miss cycles
system.l2.demand_mshr_miss_rate::.cpu.inst     0.000106                       # mshr miss rate for demand accesses
system.l2.demand_mshr_miss_rate::.cpu.data     0.462614                       # mshr miss rate for demand accesses
system.l2.demand_mshr_miss_rate::total       0.051916                       # mshr miss rate for demand accesses
system.l2.overall_mshr_miss_rate::.cpu.inst     0.000106                       # mshr miss rate for overall accesses
system.l2.overall_mshr_miss_rate::.cpu.data     0.462614                       # mshr miss rate for overall accesses
system.l2.overall_mshr_miss_rate::total      0.051916                       # mshr miss rate for overall accesses
system.l2.demand_avg_mshr_miss_latency::.cpu.inst 68884.403670                       # average overall mshr miss latency
system.l2.demand_avg_mshr_miss_latency::.cpu.data 78802.595226                       # average overall mshr miss latency
system.l2.demand_avg_mshr_miss_latency::total 78784.656587                       # average overall mshr miss latency
system.l2.overall_avg_mshr_miss_latency::.cpu.inst 68884.403670                       # average overall mshr miss latency
system.l2.overall_avg_mshr_miss_latency::.cpu.data 78802.595226                       # average overall mshr miss latency
system.l2.overall_avg_mshr_miss_latency::total 78784.656587                       # average overall mshr miss latency
system.l2.replacements                         308294                       # number of replacements
system.l2.WritebackDirty_hits::.writebacks       483432                       # number of WritebackDirty hits
system.l2.WritebackDirty_hits::total           483432                       # number of WritebackDirty hits
system.l2.WritebackDirty_accesses::.writebacks       483432                       # number of WritebackDirty accesses(hits+misses)
system.l2.WritebackDirty_accesses::total       483432                       # number of WritebackDirty accesses(hits+misses)
system.l2.WritebackClean_hits::.writebacks      5153712                       # number of WritebackClean hits
system.l2.WritebackClean_hits::total          5153712                       # number of WritebackClean hits
system.l2.WritebackClean_accesses::.writebacks      5153712                       # number of WritebackClean accesses(hits+misses)
system.l2.WritebackClean_accesses::total      5153712                       # number of WritebackClean accesses(hits+misses)
system.l2.CleanEvict_mshr_misses::.writebacks           66                       # number of CleanEvict MSHR misses
system.l2.CleanEvict_mshr_misses::total            66                       # number of CleanEvict MSHR misses
system.l2.CleanEvict_mshr_miss_rate::.writebacks          inf                       # mshr miss rate for CleanEvict accesses
system.l2.CleanEvict_mshr_miss_rate::total          inf                       # mshr miss rate for CleanEvict accesses
system.l2.ReadExReq_hits::.cpu.data             10317                       # number of ReadExReq hits
system.l2.ReadExReq_hits::total                 10317                       # number of ReadExReq hits
system.l2.ReadExReq_misses::.cpu.data          231967                       # number of ReadExReq misses
system.l2.ReadExReq_misses::total              231967                       # number of ReadExReq misses
system.l2.ReadExReq_miss_latency::.cpu.data  20228696500                       # number of ReadExReq miss cycles
system.l2.ReadExReq_miss_latency::total   20228696500                       # number of ReadExReq miss cycles
system.l2.ReadExReq_accesses::.cpu.data        242284                       # number of ReadExReq accesses(hits+misses)
system.l2.ReadExReq_accesses::total            242284                       # number of ReadExReq accesses(hits+misses)
system.l2.ReadExReq_miss_rate::.cpu.data     0.957418                       # miss rate for ReadExReq accesses
system.l2.ReadExReq_miss_rate::total         0.957418                       # miss rate for ReadExReq accesses
system.l2.ReadExReq_avg_miss_latency::.cpu.data 87205.061496                       # average ReadExReq miss latency
system.l2.ReadExReq_avg_miss_latency::total 87205.061496                       # average ReadExReq miss latency
system.l2.ReadExReq_mshr_misses::.cpu.data       231967                       # number of ReadExReq MSHR misses
system.l2.ReadExReq_mshr_misses::total         231967                       # number of ReadExReq MSHR misses
system.l2.ReadExReq_mshr_miss_latency::.cpu.data  17909026500                       # number of ReadExReq MSHR miss cycles
system.l2.ReadExReq_mshr_miss_latency::total  17909026500                       # number of ReadExReq MSHR miss cycles
system.l2.ReadExReq_mshr_miss_rate::.cpu.data     0.957418                       # mshr miss rate for ReadExReq accesses
system.l2.ReadExReq_mshr_miss_rate::total     0.957418                       # mshr miss rate for ReadExReq accesses
system.l2.ReadExReq_avg_mshr_miss_latency::.cpu.data 77205.061496                       # average ReadExReq mshr miss latency
system.l2.ReadExReq_avg_mshr_miss_latency::total 77205.061496                       # average ReadExReq mshr miss latency
system.l2.ReadCleanReq_hits::.cpu.inst        5153404                       # number of ReadCleanReq hits
system.l2.ReadCleanReq_hits::total            5153404                       # number of ReadCleanReq hits
system.l2.ReadCleanReq_misses::.cpu.inst          545                       # number of ReadCleanReq misses
system.l2.ReadCleanReq_misses::total              545                       # number of ReadCleanReq misses
system.l2.ReadCleanReq_miss_latency::.cpu.inst     42992000                       # number of ReadCleanReq miss cycles
system.l2.ReadCleanReq_miss_latency::total     42992000                       # number of ReadCleanReq miss cycles
system.l2.ReadCleanReq_accesses::.cpu.inst      5153949                       # number of ReadCleanReq accesses(hits+misses)
system.l2.ReadCleanReq_accesses::total        5153949                       # number of ReadCleanReq accesses(hits+misses)
system.l2.ReadCleanReq_miss_rate::.cpu.inst     0.000106                       # miss rate for ReadCleanReq accesses
system.l2.ReadCleanReq_miss_rate::total      0.000106                       # miss rate for ReadCleanReq accesses
system.l2.ReadCleanReq_avg_miss_latency::.cpu.inst 78884.403670                       # average ReadCleanReq miss latency
system.l2.ReadCleanReq_avg_miss_latency::total 78884.403670                       # average ReadCleanReq miss latency
system.l2.ReadCleanReq_mshr_misses::.cpu.inst          545                       # number of ReadCleanReq MSHR misses
[...]
system.cpu.dcache.demand_accesses::total     82202954                       # number of demand (read+write) accesses
system.cpu.dcache.overall_accesses::.cpu.data     82340852                       # number of overall (read+write) accesses
system.cpu.dcache.overall_accesses::total     82340852                       # number of overall (read+write) accesses
system.cpu.dcache.demand_miss_rate::.cpu.data     0.010954                       # miss rate for demand accesses
system.cpu.dcache.demand_miss_rate::total     0.010954                       # miss rate for demand accesses
system.cpu.dcache.overall_miss_rate::.cpu.data     0.011137                       # miss rate for overall accesses
system.cpu.dcache.overall_miss_rate::total     0.011137                       # miss rate for overall accesses
system.cpu.dcache.demand_avg_miss_latency::.cpu.data 50099.125194                       # average overall miss latency
system.cpu.dcache.demand_avg_miss_latency::total 50099.125194                       # average overall miss latency
system.cpu.dcache.overall_avg_miss_latency::.cpu.data 49194.059606                       # average overall miss latency
system.cpu.dcache.overall_avg_miss_latency::total 49194.059606                       # average overall miss latency
system.cpu.dcache.blocked_cycles::no_mshrs      4347117                       # number of cycles access was blocked
system.cpu.dcache.blocked_cycles::no_targets            0                       # number of cycles access was blocked
system.cpu.dcache.blocked::no_mshrs             56865                       # number of cycles access was blocked
system.cpu.dcache.blocked::no_targets               0                       # number of cycles access was blocked
system.cpu.dcache.avg_blocked_cycles::no_mshrs    76.446267                       # average number of cycles each access was blocked
system.cpu.dcache.avg_blocked_cycles::no_targets          nan                       # average number of cycles each access was blocked
system.cpu.dcache.writebacks::.writebacks       483432                       # number of writebacks
system.cpu.dcache.writebacks::total            483432                       # number of writebacks
system.cpu.dcache.demand_mshr_hits::.cpu.data       250296                       # number of demand (read+write) MSHR hits
system.cpu.dcache.demand_mshr_hits::total       250296                       # number of demand (read+write) MSHR hits
system.cpu.dcache.overall_mshr_hits::.cpu.data       250296                       # number of overall MSHR hits
system.cpu.dcache.overall_mshr_hits::total       250296                       # number of overall MSHR hits
system.cpu.dcache.demand_mshr_misses::.cpu.data       650189                       # number of demand (read+write) MSHR misses
system.cpu.dcache.demand_mshr_misses::total       650189                       # number of demand (read+write) MSHR misses
system.cpu.dcache.overall_mshr_misses::.cpu.data       650196                       # number of overall MSHR misses
system.cpu.dcache.overall_mshr_misses::total       650196                       # number of overall MSHR misses
system.cpu.dcache.demand_mshr_miss_latency::.cpu.data  31479505633                       # number of demand (read+write) MSHR miss cycles
system.cpu.dcache.demand_mshr_miss_latency::total  31479505633                       # number of demand (read+write) MSHR miss cycles
system.cpu.dcache.overall_mshr_miss_latency::.cpu.data  31479750133                       # number of overall MSHR miss cycles
system.cpu.dcache.overall_mshr_miss_latency::total  31479750133                       # number of overall MSHR miss cycles
system.cpu.dcache.demand_mshr_miss_rate::.cpu.data     0.007910                       # mshr miss rate for demand accesses
system.cpu.dcache.demand_mshr_miss_rate::total     0.007910                       # mshr miss rate for demand accesses
system.cpu.dcache.overall_mshr_miss_rate::.cpu.data     0.007896                       # mshr miss rate for overall accesses
system.cpu.dcache.overall_mshr_miss_rate::total     0.007896                       # mshr miss rate for overall accesses
system.cpu.dcache.demand_avg_mshr_miss_latency::.cpu.data 48415.930803                       # average overall mshr miss latency
system.cpu.dcache.demand_avg_mshr_miss_latency::total 48415.930803                       # average overall mshr miss latency
system.cpu.dcache.overall_avg_mshr_miss_latency::.cpu.data 48415.785598                       # average overall mshr miss latency
system.cpu.dcache.overall_avg_mshr_miss_latency::total 48415.785598                       # average overall mshr miss latency
system.cpu.dcache.replacements                 649941                       # number of replacements
system.cpu.dcache.ReadReq_hits::.cpu.data     41906260                       # number of ReadReq hits
system.cpu.dcache.ReadReq_hits::total        41906260                       # number of ReadReq hits
system.cpu.dcache.ReadReq_misses::.cpu.data       534755                       # number of ReadReq misses
system.cpu.dcache.ReadReq_misses::total        534755                       # number of ReadReq misses
system.cpu.dcache.ReadReq_miss_latency::.cpu.data  15736194000                       # number of ReadReq miss cycles
system.cpu.dcache.ReadReq_miss_latency::total  15736194000                       # number of ReadReq miss cycles
system.cpu.dcache.ReadReq_accesses::.cpu.data     42441015                       # number of ReadReq accesses(hits+misses)
system.cpu.dcache.ReadReq_accesses::total     42441015                       # number of ReadReq accesses(hits+misses)
system.cpu.dcache.ReadReq_miss_rate::.cpu.data     0.012600                       # miss rate for ReadReq accesses
system.cpu.dcache.ReadReq_miss_rate::total     0.012600                       # miss rate for ReadReq accesses
system.cpu.dcache.ReadReq_avg_miss_latency::.cpu.data 29426.922609                       # average ReadReq miss latency
system.cpu.dcache.ReadReq_avg_miss_latency::total 29426.922609                       # average ReadReq miss latency
system.cpu.dcache.ReadReq_mshr_hits::.cpu.data       126620                       # number of ReadReq MSHR hits
system.cpu.dcache.ReadReq_mshr_hits::total       126620                       # number of ReadReq MSHR hits
system.cpu.dcache.ReadReq_mshr_misses::.cpu.data       408135                       # number of ReadReq MSHR misses
system.cpu.dcache.ReadReq_mshr_misses::total       408135                       # number of ReadReq MSHR misses
system.cpu.dcache.ReadReq_mshr_miss_latency::.cpu.data  10701556500                       # number of ReadReq MSHR miss cycles
system.cpu.dcache.ReadReq_mshr_miss_latency::total  10701556500                       # number of ReadReq MSHR miss cycles
system.cpu.dcache.ReadReq_mshr_miss_rate::.cpu.data     0.009617                       # mshr miss rate for ReadReq accesses
system.cpu.dcache.ReadReq_mshr_miss_rate::total     0.009617                       # mshr miss rate for ReadReq accesses
system.cpu.dcache.ReadReq_avg_mshr_miss_latency::.cpu.data 26220.629204                       # average ReadReq mshr miss latency
system.cpu.dcache.ReadReq_avg_mshr_miss_latency::total 26220.629204                       # average ReadReq mshr miss latency
system.cpu.dcache.WriteReq_hits::.cpu.data     39396209                       # number of WriteReq hits
system.cpu.dcache.WriteReq_hits::total       39396209                       # number of WriteReq hits
system.cpu.dcache.WriteReq_misses::.cpu.data       365717                       # number of WriteReq misses
system.cpu.dcache.WriteReq_misses::total       365717                       # number of WriteReq misses
system.cpu.dcache.WriteReq_miss_latency::.cpu.data  29376903755                       # number of WriteReq miss cycles
system.cpu.dcache.WriteReq_miss_latency::total  29376903755                       # number of WriteReq miss cycles
system.cpu.dcache.WriteReq_accesses::.cpu.data     39761926                       # number of WriteReq accesses(hits+misses)
system.cpu.dcache.WriteReq_accesses::total     39761926                       # number of WriteReq accesses(hits+misses)
system.cpu.dcache.WriteReq_miss_rate::.cpu.data     0.009198                       # miss rate for WriteReq accesses
system.cpu.dcache.WriteReq_miss_rate::total     0.009198                       # miss rate for WriteReq accesses
system.cpu.dcache.WriteReq_avg_miss_latency::.cpu.data 80326.875029                       # average WriteReq miss latency
system.cpu.dcache.WriteReq_avg_miss_latency::total 80326.875029                       # average WriteReq miss latency
system.cpu.dcache.WriteReq_mshr_hits::.cpu.data       123676                       # number of WriteReq MSHR hits
system.cpu.dcache.WriteReq_mshr_hits::total       123676                       # number of WriteReq MSHR hits
system.cpu.dcache.WriteReq_mshr_misses::.cpu.data       242041                       # number of WriteReq MSHR misses
system.cpu.dcache.WriteReq_mshr_misses::total       242041                       # number of WriteReq MSHR misses
system.cpu.dcache.WriteReq_mshr_miss_latency::.cpu.data  20777549138                       # number of WriteReq MSHR miss cycles
system.cpu.dcache.WriteReq_mshr_miss_latency::total  20777549138                       # number of WriteReq MSHR miss cycles
system.cpu.dcache.WriteReq_mshr_miss_rate::.cpu.data     0.006087                       # mshr miss rate for WriteReq accesses
system.cpu.dcache.WriteReq_mshr_miss_rate::total     0.006087                       # mshr miss rate for WriteReq accesses
system.cpu.dcache.WriteReq_avg_mshr_miss_latency::.cpu.data 85843.097401                       # average WriteReq mshr miss latency
system.cpu.dcache.WriteReq_avg_mshr_miss_latency::total 85843.097401                       # average WriteReq mshr miss latency
system.cpu.dcache.SoftPFReq_hits::.cpu.data       121331                       # number of SoftPFReq hits
system.cpu.dcache.SoftPFReq_hits::total        121331                       # number of SoftPFReq hits
system.cpu.dcache.SoftPFReq_misses::.cpu.data        16567                       # number of SoftPFReq misses
system.cpu.dcache.SoftPFReq_misses::total        16567                       # number of SoftPFReq misses
system.cpu.dcache.SoftPFReq_accesses::.cpu.data       137898                       # number of SoftPFReq accesses(hits+misses)
system.cpu.dcache.SoftPFReq_accesses::total       137898                       # number of SoftPFReq accesses(hits+misses)
system.cpu.dcache.SoftPFReq_miss_rate::.cpu.data     0.120140                       # miss rate for SoftPFReq accesses
system.cpu.dcache.SoftPFReq_miss_rate::total     0.120140                       # miss rate for SoftPFReq accesses
system.cpu.dcache.SoftPFReq_mshr_misses::.cpu.data            7                       # number of SoftPFReq MSHR misses
system.cpu.dcache.SoftPFReq_mshr_misses::total            7                       # number of SoftPFReq MSHR misses
system.cpu.dcache.SoftPFReq_mshr_miss_latency::.cpu.data       244500                       # number of SoftPFReq MSHR miss cycles
system.cpu.dcache.SoftPFReq_mshr_miss_latency::total       244500                       # number of SoftPFReq MSHR miss cycles
system.cpu.dcache.SoftPFReq_mshr_miss_rate::.cpu.data     0.000051                       # mshr miss rate for SoftPFReq accesses
system.cpu.dcache.SoftPFReq_mshr_miss_rate::total     0.000051                       # mshr miss rate for SoftPFReq accesses
system.cpu.dcache.SoftPFReq_avg_mshr_miss_latency::.cpu.data 34928.571429                       # average SoftPFReq mshr miss latency
system.cpu.dcache.SoftPFReq_avg_mshr_miss_latency::total 34928.571429                       # average SoftPFReq mshr miss latency
system.cpu.dcache.WriteLineReq_misses::.cpu.data           13                       # number of WriteLineReq misses
system.cpu.dcache.WriteLineReq_misses::total           13                       # number of WriteLineReq misses
system.cpu.dcache.WriteLineReq_miss_latency::.cpu.data       412995                       # number of WriteLineReq miss cycles
system.cpu.dcache.WriteLineReq_miss_latency::total       412995                       # number of WriteLineReq miss cycles
system.cpu.dcache.WriteLineReq_accesses::.cpu.data           13                       # number of WriteLineReq accesses(hits+misses)
system.cpu.dcache.WriteLineReq_accesses::total           13                       # number of WriteLineReq accesses(hits+misses)
system.cpu.dcache.WriteLineReq_miss_rate::.cpu.data            1                       # miss rate for WriteLineReq accesses
system.cpu.dcache.WriteLineReq_miss_rate::total            1                       # miss rate for WriteLineReq accesses
system.cpu.dcache.WriteLineReq_avg_miss_latency::.cpu.data 31768.846154                       # average WriteLineReq miss latency
system.cpu.dcache.WriteLineReq_avg_miss_latency::total 31768.846154                       # average WriteLineReq miss latency
system.cpu.dcache.WriteLineReq_mshr_misses::.cpu.data           13                       # number of WriteLineReq MSHR misses
system.cpu.dcache.WriteLineReq_mshr_misses::total           13                       # number of WriteLineReq MSHR misses
system.cpu.dcache.WriteLineReq_mshr_miss_latency::.cpu.data       399995                       # number of WriteLineReq MSHR miss cycles
system.cpu.dcache.WriteLineReq_mshr_miss_latency::total       399995                       # number of WriteLineReq MSHR miss cycles
system.cpu.dcache.WriteLineReq_mshr_miss_rate::.cpu.data            1                       # mshr miss rate for WriteLineReq accesses
system.cpu.dcache.WriteLineReq_mshr_miss_rate::total            1                       # mshr miss rate for WriteLineReq accesses
system.cpu.dcache.WriteLineReq_avg_mshr_miss_latency::.cpu.data 30768.846154                       # average WriteLineReq mshr miss latency
system.cpu.dcache.WriteLineReq_avg_mshr_miss_latency::total 30768.846154                       # average WriteLineReq mshr miss latency
system.cpu.dcache.LoadLockedReq_hits::.cpu.data       128195                       # number of LoadLockedReq hits
system.cpu.dcache.LoadLockedReq_hits::total       128195                       # number of LoadLockedReq hits
system.cpu.dcache.LoadLockedReq_misses::.cpu.data       123442                       # number of LoadLockedReq misses
system.cpu.dcache.LoadLockedReq_misses::total       123442                       # number of LoadLockedReq misses
system.cpu.dcache.LoadLockedReq_miss_latency::.cpu.data   1728318500                       # number of LoadLockedReq miss cycles
system.cpu.dcache.LoadLockedReq_miss_latency::total   1728318500                       # number of LoadLockedReq miss cycles
system.cpu.dcache.LoadLockedReq_accesses::.cpu.data       251637                       # number of LoadLockedReq accesses(hits+misses)
system.cpu.dcache.LoadLockedReq_accesses::total       251637                       # number of LoadLockedReq accesses(hits+misses)
system.cpu.dcache.LoadLockedReq_miss_rate::.cpu.data     0.490556                       # miss rate for LoadLockedReq accesses
system.cpu.dcache.LoadLockedReq_miss_rate::total     0.490556                       # miss rate for LoadLockedReq accesses
system.cpu.dcache.LoadLockedReq_avg_miss_latency::.cpu.data 14001.057177                       # average LoadLockedReq miss latency
system.cpu.dcache.LoadLockedReq_avg_miss_latency::total 14001.057177                       # average LoadLockedReq miss latency
system.cpu.dcache.LoadLockedReq_mshr_hits::.cpu.data       123441                       # number of LoadLockedReq MSHR hits
system.cpu.dcache.LoadLockedReq_mshr_hits::total       123441                       # number of LoadLockedReq MSHR hits
system.cpu.dcache.LoadLockedReq_mshr_misses::.cpu.data            1                       # number of LoadLockedReq MSHR misses
system.cpu.dcache.LoadLockedReq_mshr_misses::total            1                       # number of LoadLockedReq MSHR misses
system.cpu.dcache.LoadLockedReq_mshr_miss_latency::.cpu.data        85000                       # number of LoadLockedReq MSHR miss cycles
system.cpu.dcache.LoadLockedReq_mshr_miss_latency::total        85000                       # number of LoadLockedReq MSHR miss cycles
system.cpu.dcache.LoadLockedReq_mshr_miss_rate::.cpu.data     0.000004                       # mshr miss rate for LoadLockedReq accesses
system.cpu.dcache.LoadLockedReq_mshr_miss_rate::total     0.000004                       # mshr miss rate for LoadLockedReq accesses
system.cpu.dcache.LoadLockedReq_avg_mshr_miss_latency::.cpu.data        85000                       # average LoadLockedReq mshr miss latency
system.cpu.dcache.LoadLockedReq_avg_mshr_miss_latency::total        85000                       # average LoadLockedReq mshr miss latency
system.cpu.dcache.StoreCondReq_hits::.cpu.data       246912                       # number of StoreCondReq hits
system.cpu.dcache.StoreCondReq_hits::total       246912                       # number of StoreCondReq hits
system.cpu.dcache.StoreCondReq_accesses::.cpu.data       246912                       # number of StoreCondReq accesses(hits+misses)
system.cpu.dcache.StoreCondReq_accesses::total       246912                       # number of StoreCondReq accesses(hits+misses)
system.cpu.dcache.power_state.pwrStateResidencyTicks::UNDEFINED 127752576500                       # Cumulative time (in ticks) in various power states
system.cpu.dcache.tags.tagsinuse           255.960500                       # Cycle average of tags in use
system.cpu.dcache.tags.total_refs            82449104                       # Total number of references to valid blocks.
system.cpu.dcache.tags.sampled_refs            650197                       # Sample count of references to valid blocks.
system.cpu.dcache.tags.avg_refs            126.806343                       # Average number of references to valid blocks.
system.cpu.dcache.tags.warmup_cycle            176500                       # Cycle when the warmup percentage was hit.
system.cpu.dcache.tags.occ_blocks::.cpu.data   255.960500                       # Average occupied blocks per requestor
system.cpu.dcache.tags.occ_percent::.cpu.data     0.999846                       # Average percentage of cache occupancy
system.cpu.dcache.tags.occ_percent::total     0.999846                       # Average percentage of cache occupancy
system.cpu.dcache.tags.occ_task_id_blocks::1024          256                       # Occupied blocks per task id
system.cpu.dcache.tags.age_task_id_blocks_1024::0           20                       # Occupied blocks per task id
system.cpu.dcache.tags.age_task_id_blocks_1024::1          123                       # Occupied blocks per task id
system.cpu.dcache.tags.age_task_id_blocks_1024::2           87                       # Occupied blocks per task id
system.cpu.dcache.tags.age_task_id_blocks_1024::3           22                       # Occupied blocks per task id
system.cpu.dcache.tags.age_task_id_blocks_1024::4            4                       # Occupied blocks per task id
system.cpu.dcache.tags.occ_task_id_percent::1024            1                       # Percentage of cache occupancy per task id
system.cpu.dcache.tags.tag_accesses         166328999                       # Number of tag accesses
system.cpu.dcache.tags.data_accesses        166328999                       # Number of data accesses
system.cpu.dcache.tags.power_state.pwrStateResidencyTicks::UNDEFINED 127752576500                       # Cumulative time (in ticks) in various power states
system.cpu.power_state.pwrStateResidencyTicks::ON 127752576500                       # Cumulative time (in ticks) in various power states

---------- End Simulation Statistics   ----------
