
---------- Begin Simulation Statistics ----------
final_tick                               205398491500                       # Number of ticks from beginning of simulation (restored from checkpoints and never reset)
host_inst_rate                                 149560                       # Simulator instruction rate (inst/s)
host_mem_usage                                 851880                       # Number of bytes of host memory used
host_op_rate                                   153000                       # Simulator op (including micro ops) rate (op/s)
host_seconds                                  3343.15                       # Real time elapsed on the host
host_tick_rate                               61438674                       # Simulator tick rate (ticks/s)
sim_freq                                 1000000000000                       # Frequency of simulated ticks
sim_insts                                   500000002                       # Number of instructions simulated
sim_ops                                     511499988                       # Number of ops (including micro ops) simulated
sim_seconds                                  0.205398                       # Number of seconds simulated
sim_ticks                                205398491500                       # Number of ticks simulated
system.cpu.branchPred.BTBCorrect                    0                       # Number of correct BTB predictions (this stat may not work properly.
system.cpu.branchPred.BTBHitPct             99.935347                       # BTB Hit Percentage
system.cpu.branchPred.BTBHits                63259737                       # Number of BTB hits
system.cpu.branchPred.BTBLookups             63300663                       # Number of BTB lookups
system.cpu.branchPred.RASInCorrect                  3                       # Number of incorrect RAS predictions.
system.cpu.branchPred.condIncorrect           6089547                       # Number of conditional branches incorrect
system.cpu.branchPred.condPredicted         101500273                       # Number of conditional branches predicted
system.cpu.branchPred.indirectHits                700                       # Number of indirect target hits.
system.cpu.branchPred.indirectLookups            1191                       # Number of indirect predictor lookups.
system.cpu.branchPred.indirectMisses              491                       # Number of indirect misses.
system.cpu.branchPred.lookups               127899599                       # Number of BP lookups
system.cpu.branchPred.usedRAS                 3750992                       # Number of times the RAS was used to get a target.
system.cpu.branchPredindirectMispredicted          140                       # Number of mispredicted indirect branches.
system.cpu.cc_regfile_reads                 203958618                       # number of cc regfile reads
system.cpu.cc_regfile_writes                204562620                       # number of cc regfile writes
system.cpu.commit.amos                              0                       # Number of atomic instructions committed
system.cpu.commit.branchMispredicts           6088959                       # The number of times a branch was mispredicted
system.cpu.commit.branches                   83489176                       # Number of branches committed
system.cpu.commit.bw_lim_events              27465317                       # number cycles where commit BW limit reached
system.cpu.commit.commitNonSpecStalls              87                       # The number of times commit has been forced to stall to communicate backwards
system.cpu.commit.commitSquashedInsts       158427486                       # The number of squashed insts skipped by commit
system.cpu.commit.committedInsts            500622978                       # Number of instructions committed
system.cpu.commit.committedOps              512122964                       # Number of ops (including micro ops) committed
system.cpu.commit.committed_per_cycle::samples    387379534                       # Number of insts commited each cycle
system.cpu.commit.committed_per_cycle::mean     1.322019                       # Number of insts commited each cycle
system.cpu.commit.committed_per_cycle::stdev     2.369034                       # Number of insts commited each cycle
system.cpu.commit.committed_per_cycle::underflows            0      0.00%      0.00% # Number of insts commited each cycle
system.cpu.commit.committed_per_cycle::0    237212826     61.24%     61.24% # Number of insts commited each cycle
system.cpu.commit.committed_per_cycle::1     59574029     15.38%     76.61% # Number of insts commited each cycle
system.cpu.commit.committed_per_cycle::2     21847841      5.64%     82.25% # Number of insts commited each cycle
system.cpu.commit.committed_per_cycle::3     13080158      3.38%     85.63% # Number of insts commited each cycle
system.cpu.commit.committed_per_cycle::4      8095782      2.09%     87.72% # Number of insts commited each cycle
system.cpu.commit.committed_per_cycle::5      7946322      2.05%     89.77% # Number of insts commited each cycle
system.cpu.commit.committed_per_cycle::6      7325308      1.89%     91.66% # Number of insts commited each cycle
system.cpu.commit.committed_per_cycle::7      4831951      1.25%     92.91% # Number of insts commited each cycle
system.cpu.commit.committed_per_cycle::8     27465317      7.09%    100.00% # Number of insts commited each cycle
system.cpu.commit.committed_per_cycle::overflows            0      0.00%    100.00% # Number of insts commited each cycle
system.cpu.commit.committed_per_cycle::min_value            0                       # Number of insts commited each cycle
system.cpu.commit.committed_per_cycle::max_value            8                       # Number of insts commited each cycle
system.cpu.commit.committed_per_cycle::total    387379534                       # Number of insts commited each cycle
system.cpu.commit.fp_insts                          0                       # Number of committed floating point instructions.
system.cpu.commit.function_calls              2044911                       # Number of function calls committed.
system.cpu.commit.int_insts                 445919797                       # Number of committed integer instructions.
system.cpu.commit.loads                     136228528                       # Number of loads committed
system.cpu.commit.membars                          57                       # Number of memory barriers committed
system.cpu.commit.op_class_0::No_OpClass           18      0.00%      0.00% # Class of committed instruction
system.cpu.commit.op_class_0::IntAlu        324185021     63.30%     63.30% # Class of committed instruction
system.cpu.commit.op_class_0::IntMult           39001      0.01%     63.31% # Class of committed instruction
system.cpu.commit.op_class_0::IntDiv               17      0.00%     63.31% # Class of committed instruction
system.cpu.commit.op_class_0::FloatAdd              0      0.00%     63.31% # Class of committed instruction
system.cpu.commit.op_class_0::FloatCmp              0      0.00%     63.31% # Class of committed instruction
system.cpu.commit.op_class_0::FloatCvt              0      0.00%     63.31% # Class of committed instruction
system.cpu.commit.op_class_0::FloatMult             0      0.00%     63.31% # Class of committed instruction
system.cpu.commit.op_class_0::FloatMultAcc            0      0.00%     63.31% # Class of committed instruction
system.cpu.commit.op_class_0::FloatDiv              0      0.00%     63.31% # Class of committed instruction
system.cpu.commit.op_class_0::FloatMisc             2      0.00%     63.31% # Class of committed instruction
system.cpu.commit.op_class_0::FloatSqrt             0      0.00%     63.31% # Class of committed instruction
system.cpu.commit.op_class_0::SimdAdd              50      0.00%     63.31% # Class of committed instruction
system.cpu.commit.op_class_0::SimdAddAcc            0      0.00%     63.31% # Class of committed instruction
system.cpu.commit.op_class_0::SimdAlu              73      0.00%     63.31% # Class of committed instruction
system.cpu.commit.op_class_0::SimdCmp              72      0.00%     63.31% # Class of committed instruction
system.cpu.commit.op_class_0::SimdCvt               0      0.00%     63.31% # Class of committed instruction
system.cpu.commit.op_class_0::SimdMisc             52      0.00%     63.31% # Class of committed instruction
system.cpu.commit.op_class_0::SimdMult              0      0.00%     63.31% # Class of committed instruction
system.cpu.commit.op_class_0::SimdMultAcc            0      0.00%     63.31% # Class of committed instruction
system.cpu.commit.op_class_0::SimdShift             0      0.00%     63.31% # Class of committed instruction
system.cpu.commit.op_class_0::SimdShiftAcc            0      0.00%     63.31% # Class of committed instruction
system.cpu.commit.op_class_0::SimdDiv               0      0.00%     63.31% # Class of committed instruction
system.cpu.commit.op_class_0::SimdSqrt              0      0.00%     63.31% # Class of committed instruction
system.cpu.commit.op_class_0::SimdFloatAdd            0      0.00%     63.31% # Class of committed instruction
system.cpu.commit.op_class_0::SimdFloatAlu            0      0.00%     63.31% # Class of committed instruction
system.cpu.commit.op_class_0::SimdFloatCmp            0      0.00%     63.31% # Class of committed instruction
system.cpu.commit.op_class_0::SimdFloatCvt            0      0.00%     63.31% # Class of committed instruction
system.cpu.commit.op_class_0::SimdFloatDiv            0      0.00%     63.31% # Class of committed instruction
system.cpu.commit.op_class_0::SimdFloatMisc            0      0.00%     63.31% # Class of committed instruction
system.cpu.commit.op_class_0::SimdFloatMult            0      0.00%     63.31% # Class of committed instruction
system.cpu.commit.op_class_0::SimdFloatMultAcc            0      0.00%     63.31% # Class of committed instruction
system.cpu.commit.op_class_0::SimdFloatSqrt            0      0.00%     63.31% # Class of committed instruction
system.cpu.commit.op_class_0::SimdReduceAdd            0      0.00%     63.31% # Class of committed instruction
system.cpu.commit.op_class_0::SimdReduceAlu            0      0.00%     63.31% # Class of committed instruction
system.cpu.commit.op_class_0::SimdReduceCmp            0      0.00%     63.31% # Class of committed instruction
system.cpu.commit.op_class_0::SimdFloatReduceAdd            0      0.00%     63.31% # Class of committed instruction
system.cpu.commit.op_class_0::SimdFloatReduceCmp            0      0.00%     63.31% # Class of committed instruction
system.cpu.commit.op_class_0::SimdAes               0      0.00%     63.31% # Class of committed instruction
system.cpu.commit.op_class_0::SimdAesMix            0      0.00%     63.31% # Class of committed instruction
system.cpu.commit.op_class_0::SimdSha1Hash            0      0.00%     63.31% # Class of committed instruction
system.cpu.commit.op_class_0::SimdSha1Hash2            0      0.00%     63.31% # Class of committed instruction
system.cpu.commit.op_class_0::SimdSha256Hash            0      0.00%     63.31% # Class of committed instruction
system.cpu.commit.op_class_0::SimdSha256Hash2            0      0.00%     63.31% # Class of committed instruction
system.cpu.commit.op_class_0::SimdShaSigma2            0      0.00%     63.31% # Class of committed instruction
system.cpu.commit.op_class_0::SimdShaSigma3            0      0.00%     63.31% # Class of committed instruction
system.cpu.commit.op_class_0::SimdPredAlu            0      0.00%     63.31% # Class of committed instruction
system.cpu.commit.op_class_0::MemRead       136228528     26.60%     89.91% # Class of committed instruction
system.cpu.commit.op_class_0::MemWrite       51670130     10.09%    100.00% # Class of committed instruction
system.cpu.commit.op_class_0::FloatMemRead            0      0.00%    100.00% # Class of committed instruction
system.cpu.commit.op_class_0::FloatMemWrite            0      0.00%    100.00% # Class of committed instruction
system.cpu.commit.op_class_0::IprAccess             0      0.00%    100.00% # Class of committed instruction
system.cpu.commit.op_class_0::InstPrefetch            0      0.00%    100.00% # Class of committed instruction
system.cpu.commit.op_class_0::total         512122964                       # Class of committed instruction
system.cpu.commit.refs                      187898658                       # Number of memory references committed
system.cpu.commit.swp_count                         0                       # Number of s/w prefetches committed
system.cpu.commit.vec_insts                       491                       # Number of committed Vector instructions.
system.cpu.committedInsts                   500000002                       # Number of Instructions Simulated
system.cpu.committedOps                     511499988                       # Number of Ops (including micro ops) Simulated
system.cpu.cpi                               0.821594                       # CPI: Cycles Per Instruction
system.cpu.cpi_total                         0.821594                       # CPI: Total CPI of All Threads
system.cpu.decode.BlockedCycles             179792457                       # Number of cycles decode is blocked
system.cpu.decode.BranchMispred                   607                       # Number of times decode detected a branch misprediction
system.cpu.decode.BranchResolved             60730617                       # Number of times decode resolved a branch
system.cpu.decode.DecodedInsts              721698552                       # Number of instructions handled by decode
system.cpu.decode.IdleCycles                 90387594                       # Number of cycles decode is idle
system.cpu.decode.RunCycles                 118902906                       # Number of cycles decode is running
system.cpu.decode.SquashCycles                6127317                       # Number of cycles decode is squashing
system.cpu.decode.SquashedInsts                  2154                       # Number of squashed instructions handled by decode
system.cpu.decode.UnblockCycles              15502115                       # Number of cycles decode is unblocking
system.cpu.dtb.accesses                             0                       # DTB accesses
system.cpu.dtb.align_faults                         0                       # Number of TLB faults due to alignment restrictions
system.cpu.dtb.domain_faults                        0                       # Number of TLB faults due to domain restrictions
system.cpu.dtb.flush_entries                        0                       # Number of entries that have been flushed from TLB
system.cpu.dtb.flush_tlb                            6                       # Number of times complete TLB was flushed
system.cpu.dtb.flush_tlb_asid                       0                       # Number of times TLB was flushed by ASID
system.cpu.dtb.flush_tlb_mva                        0                       # Number of times TLB was flushed by MVA
system.cpu.dtb.flush_tlb_mva_asid                   0                       # Number of times TLB was flushed by MVA & ASID
system.cpu.dtb.hits                                 0                       # DTB hits
system.cpu.dtb.inst_accesses                        0                       # ITB inst accesses
system.cpu.dtb.inst_hits                            0                       # ITB inst hits
system.cpu.dtb.inst_misses                          0                       # ITB inst misses
system.cpu.dtb.misses                               0                       # DTB misses
system.cpu.dtb.perms_faults                         0                       # Number of TLB faults due to permissions restrictions
system.cpu.dtb.prefetch_faults                      0                       # Number of TLB faults due to prefetch
system.cpu.dtb.read_accesses                        0                       # DTB read accesses
system.cpu.dtb.read_hits                            0                       # DTB read hits
system.cpu.dtb.read_misses                          0                       # DTB read misses
system.cpu.dtb.stage2_mmu.stage2_tlb.accesses            0                       # DTB accesses
system.cpu.dtb.stage2_mmu.stage2_tlb.align_faults            0                       # Number of TLB faults due to alignment restrictions
system.cpu.dtb.stage2_mmu.stage2_tlb.domain_faults            0                       # Number of TLB faults due to domain restrictions
system.cpu.dtb.stage2_mmu.stage2_tlb.flush_entries            0                       # Number of entries that have been flushed from TLB
system.cpu.dtb.stage2_mmu.stage2_tlb.flush_tlb            0                       # Number of times complete TLB was flushed
system.cpu.dtb.stage2_mmu.stage2_tlb.flush_tlb_asid            0                       # Number of times TLB was flushed by ASID
system.cpu.dtb.stage2_mmu.stage2_tlb.flush_tlb_mva            0                       # Number of times TLB was flushed by MVA
system.cpu.dtb.stage2_mmu.stage2_tlb.flush_tlb_mva_asid            0                       # Number of times TLB was flushed by MVA & ASID
system.cpu.dtb.stage2_mmu.stage2_tlb.hits            0                       # DTB hits
system.cpu.dtb.stage2_mmu.stage2_tlb.inst_accesses            0                       # ITB inst accesses
system.cpu.dtb.stage2_mmu.stage2_tlb.inst_hits            0                       # ITB inst hits
system.cpu.dtb.stage2_mmu.stage2_tlb.inst_misses            0                       # ITB inst misses
system.cpu.dtb.stage2_mmu.stage2_tlb.misses            0                       # DTB misses
system.cpu.dtb.stage2_mmu.stage2_tlb.perms_faults            0                       # Number of TLB faults due to permissions restrictions
system.cpu.dtb.stage2_mmu.stage2_tlb.prefetch_faults            0                       # Number of TLB faults due to prefetch
system.cpu.dtb.stage2_mmu.stage2_tlb.read_accesses            0                       # DTB read accesses
system.cpu.dtb.stage2_mmu.stage2_tlb.read_hits            0                       # DTB read hits
system.cpu.dtb.stage2_mmu.stage2_tlb.read_misses            0                       # DTB read misses
system.cpu.dtb.stage2_mmu.stage2_tlb.walker.walkRequestOrigin_Requested::Data            0                       # Table walker requests started/completed, data/inst
system.cpu.dtb.stage2_mmu.stage2_tlb.walker.walkRequestOrigin_Requested::Inst            0                       # Table walker requests started/completed, data/inst
system.cpu.dtb.stage2_mmu.stage2_tlb.walker.walkRequestOrigin_Requested::total            0                       # Table walker requests started/completed, data/inst
system.cpu.dtb.stage2_mmu.stage2_tlb.walker.walkRequestOrigin_Completed::Data            0                       # Table walker requests started/completed, data/inst
system.cpu.dtb.stage2_mmu.stage2_tlb.walker.walkRequestOrigin_Completed::Inst            0                       # Table walker requests started/completed, data/inst
system.cpu.dtb.stage2_mmu.stage2_tlb.walker.walkRequestOrigin_Completed::total            0                       # Table walker requests started/completed, data/inst
system.cpu.dtb.stage2_mmu.stage2_tlb.walker.walkRequestOrigin::total            0                       # Table walker requests started/completed, data/inst
system.cpu.dtb.stage2_mmu.stage2_tlb.walker.walks            0                       # Table walker walks requested
system.cpu.dtb.stage2_mmu.stage2_tlb.write_accesses            0                       # DTB write accesses
system.cpu.dtb.stage2_mmu.stage2_tlb.write_hits            0                       # DTB write hits
system.cpu.dtb.stage2_mmu.stage2_tlb.write_misses            0                       # DTB write misses
system.cpu.dtb.walker.walkRequestOrigin_Requested::Data            0                       # Table walker requests started/completed, data/inst
system.cpu.dtb.walker.walkRequestOrigin_Requested::Inst            0                       # Table walker requests started/completed, data/inst
system.cpu.dtb.walker.walkRequestOrigin_Requested::total            0                       # Table walker requests started/completed, data/inst
system.cpu.dtb.walker.walkRequestOrigin_Completed::Data            0                       # Table walker requests started/completed, data/inst
system.cpu.dtb.walker.walkRequestOrigin_Completed::Inst            0                       # Table walker requests started/completed, data/inst
system.cpu.dtb.walker.walkRequestOrigin_Completed::total            0                       # Table walker requests started/completed, data/inst
system.cpu.dtb.walker.walkRequestOrigin::total            0                       # Table walker requests started/completed, data/inst
system.cpu.dtb.walker.walks                         0                       # Table walker walks requested
system.cpu.dtb.write_accesses                       0                       # DTB write accesses
system.cpu.dtb.write_hits                           0                       # DTB write hits
system.cpu.dtb.write_misses                         0                       # DTB write misses
system.cpu.fetch.Branches                   127899599                       # Number of branches that fetch encountered
system.cpu.fetch.CacheLines                 109171636                       # Number of cache lines fetched
system.cpu.fetch.Cycles                     292437715                       # Number of cycles fetch has run and was not squashing or blocked
system.cpu.fetch.IcacheSquashes               2467902                       # Number of outstanding Icache misses that were squashed
system.cpu.fetch.IcacheWaitRetryStallCycles           48                       # Number of stall cycles due to full MSHR
system.cpu.fetch.Insts                      732438831                       # Number of instructions fetch has processed
system.cpu.fetch.MiscStallCycles                    3                       # Number of cycles fetch has spent waiting on interrupts, or bad addresses, or out of MSHRs
system.cpu.fetch.SquashCycles                12255810                       # Number of cycles fetch has spent squashing
system.cpu.fetch.branchRate                  0.311345                       # Number of branch fetches per cycle
system.cpu.fetch.icacheStallCycles          112146718                       # Number of cycles fetch is stalled on an Icache miss
system.cpu.fetch.predictedBranches           67011429                       # Number of branches that fetch has predicted taken
system.cpu.fetch.rate                        1.782970                       # Number of inst fetches per cycle
system.cpu.fetch.rateDist::samples          410712389                       # Number of instructions fetched each cycle (Total)
system.cpu.fetch.rateDist::mean              1.820003                       # Number of instructions fetched each cycle (Total)
system.cpu.fetch.rateDist::stdev             2.895975                       # Number of instructions fetched each cycle (Total)
system.cpu.fetch.rateDist::underflows               0      0.00%      0.00% # Number of instructions fetched each cycle (Total)
system.cpu.fetch.rateDist::0                256324236     62.41%     62.41% # Number of instructions fetched each cycle (Total)
system.cpu.fetch.rateDist::1                 29934709      7.29%     69.70% # Number of instructions fetched each cycle (Total)
system.cpu.fetch.rateDist::2                 13245605      3.23%     72.92% # Number of instructions fetched each cycle (Total)
system.cpu.fetch.rateDist::3                 15112402      3.68%     76.60% # Number of instructions fetched each cycle (Total)
system.cpu.fetch.rateDist::4                 15973111      3.89%     80.49% # Number of instructions fetched each cycle (Total)
system.cpu.fetch.rateDist::5                 13208890      3.22%     83.71% # Number of instructions fetched each cycle (Total)
system.cpu.fetch.rateDist::6                  5210421      1.27%     84.98% # Number of instructions fetched each cycle (Total)
system.cpu.fetch.rateDist::7                  9088751      2.21%     87.19% # Number of instructions fetched each cycle (Total)
system.cpu.fetch.rateDist::8                 52614264     12.81%    100.00% # Number of instructions fetched each cycle (Total)
system.cpu.fetch.rateDist::overflows                0      0.00%    100.00% # Number of instructions fetched each cycle (Total)
system.cpu.fetch.rateDist::min_value                0                       # Number of instructions fetched each cycle (Total)
system.cpu.fetch.rateDist::max_value                8                       # Number of instructions fetched each cycle (Total)
system.cpu.fetch.rateDist::total            410712389                       # Number of instructions fetched each cycle (Total)
system.cpu.idleCycles                           84595                       # Total number of cycles that the CPU has spent unscheduled due to idling
system.cpu.iew.branchMispredicts              7427571                       # Number of branch mispredicts detected at execute
system.cpu.iew.exec_branches                100320403                       # Number of branches executed
system.cpu.iew.exec_nop                        976001                       # number of nop insts executed
system.cpu.iew.exec_rate                     1.523807                       # Inst execution rate
system.cpu.iew.exec_refs                    230570873                       # number of memory reference insts executed
system.cpu.iew.exec_stores                   57526809                       # Number of stores executed
system.cpu.iew.exec_swp                             0                       # number of swp insts executed
system.cpu.iew.iewBlockCycles                77232207                       # Number of cycles IEW is blocking
system.cpu.iew.iewDispLoadInsts             171277677                       # Number of dispatched load instructions
system.cpu.iew.iewDispNonSpecInsts                134                       # Number of dispatched non-speculative instructions
system.cpu.iew.iewDispSquashedInsts           1966192                       # Number of squashed instructions skipped by dispatch
system.cpu.iew.iewDispStoreInsts             64232623                       # Number of dispatched store instructions
system.cpu.iew.iewDispatchedInsts           670542316                       # Number of instructions dispatched to IQ
system.cpu.iew.iewExecLoadInsts             173044064                       # Number of load instructions executed
system.cpu.iew.iewExecSquashedInsts          10222320                       # Number of squashed instructions skipped in execute
system.cpu.iew.iewExecutedInsts             625975261                       # Number of executed instructions
system.cpu.iew.iewIQFullEvents                 518397                       # Number of times the IQ has become full, causing a stall
system.cpu.iew.iewIdleCycles                        0                       # Number of cycles IEW is idle
system.cpu.iew.iewLSQFullEvents              13127242                       # Number of times the LSQ has become full, causing a stall
system.cpu.iew.iewSquashCycles                6127317                       # Number of cycles IEW is squashing
system.cpu.iew.iewUnblockCycles              13972204                       # Number of cycles IEW is unblocking
system.cpu.iew.lsq.thread0.blockedLoads             0                       # Number of blocked loads due to partial load-store forwarding
system.cpu.iew.lsq.thread0.cacheBlocked       1147574                       # Number of times an access to memory failed due to the cache being blocked
system.cpu.iew.lsq.thread0.forwLoads         16853027                       # Number of loads that had data forwarded from stores
system.cpu.iew.lsq.thread0.ignoredResponses        80185                       # Number of memory responses ignored because the instruction is squashed
system.cpu.iew.lsq.thread0.invAddrLoads             0                       # Number of loads ignored due to an invalid address
system.cpu.iew.lsq.thread0.invAddrSwpfs             0                       # Number of software prefetches ignored due to an invalid address
system.cpu.iew.lsq.thread0.memOrderViolation        38879                       # Number of memory ordering violations
system.cpu.iew.lsq.thread0.rescheduledLoads      5345196                       # Number of loads that were rescheduled
system.cpu.iew.lsq.thread0.squashedLoads     35049124                       # Number of loads squashed
system.cpu.iew.lsq.thread0.squashedStores     12562469                       # Number of stores squashed
system.cpu.iew.memOrderViolationEvents          38879                       # Number of memory order violations
system.cpu.iew.predictedNotTakenIncorrect      3996532                       # Number of branches that were predicted not taken incorrectly
system.cpu.iew.predictedTakenIncorrect        3431039                       # Number of branches that were predicted taken incorrectly
system.cpu.iew.wb_consumers                 609731189                       # num instructions consuming a value
system.cpu.iew.wb_count                     603770930                       # cumulative count of insts written-back
system.cpu.iew.wb_fanout                     0.619461                       # average fanout of values written-back
system.cpu.iew.wb_producers                 377704597                       # num instructions producing a value
system.cpu.iew.wb_rate                       1.469755                       # insts written-back per cycle
system.cpu.iew.wb_sent                      606039041                       # cumulative count of insts sent to commit
system.cpu.int_regfile_reads                830896134                       # number of integer regfile reads
system.cpu.int_regfile_writes               456364021                       # number of integer regfile writes
system.cpu.ipc                               1.217146                       # IPC: Instructions Per Cycle
system.cpu.ipc_total                         1.217146                       # IPC: Total IPC of All Threads
system.cpu.iq.FU_type_0::No_OpClass                21      0.00%      0.00% # Type of FU issued
system.cpu.iq.FU_type_0::IntAlu             401380249     63.09%     63.09% # Type of FU issued
system.cpu.iq.FU_type_0::IntMult                39281      0.01%     63.10% # Type of FU issued
system.cpu.iq.FU_type_0::IntDiv                    54      0.00%     63.10% # Type of FU issued
system.cpu.iq.FU_type_0::FloatAdd                   0      0.00%     63.10% # Type of FU issued
system.cpu.iq.FU_type_0::FloatCmp                   0      0.00%     63.10% # Type of FU issued
system.cpu.iq.FU_type_0::FloatCvt                  13      0.00%     63.10% # Type of FU issued
system.cpu.iq.FU_type_0::FloatMult                  9      0.00%     63.10% # Type of FU issued
system.cpu.iq.FU_type_0::FloatMultAcc               9      0.00%     63.10% # Type of FU issued
system.cpu.iq.FU_type_0::FloatDiv                   0      0.00%     63.10% # Type of FU issued
system.cpu.iq.FU_type_0::FloatMisc                  6      0.00%     63.10% # Type of FU issued
system.cpu.iq.FU_type_0::FloatSqrt                  0      0.00%     63.10% # Type of FU issued
system.cpu.iq.FU_type_0::SimdAdd                   62      0.00%     63.10% # Type of FU issued
system.cpu.iq.FU_type_0::SimdAddAcc                 0      0.00%     63.10% # Type of FU issued
system.cpu.iq.FU_type_0::SimdAlu                   87      0.00%     63.10% # Type of FU issued
system.cpu.iq.FU_type_0::SimdCmp                   84      0.00%     63.10% # Type of FU issued
system.cpu.iq.FU_type_0::SimdCvt                    1      0.00%     63.10% # Type of FU issued
system.cpu.iq.FU_type_0::SimdMisc                  61      0.00%     63.10% # Type of FU issued
system.cpu.iq.FU_type_0::SimdMult                   0      0.00%     63.10% # Type of FU issued
system.cpu.iq.FU_type_0::SimdMultAcc                0      0.00%     63.10% # Type of FU issued
system.cpu.iq.FU_type_0::SimdShift                  0      0.00%     63.10% # Type of FU issued
system.cpu.iq.FU_type_0::SimdShiftAcc               0      0.00%     63.10% # Type of FU issued
system.cpu.iq.FU_type_0::SimdDiv                    0      0.00%     63.10% # Type of FU issued
system.cpu.iq.FU_type_0::SimdSqrt                   0      0.00%     63.10% # Type of FU issued
system.cpu.iq.FU_type_0::SimdFloatAdd               0      0.00%     63.10% # Type of FU issued
system.cpu.iq.FU_type_0::SimdFloatAlu               0      0.00%     63.10% # Type of FU issued
system.cpu.iq.FU_type_0::SimdFloatCmp               0      0.00%     63.10% # Type of FU issued
system.cpu.iq.FU_type_0::SimdFloatCvt               0      0.00%     63.10% # Type of FU issued
system.cpu.iq.FU_type_0::SimdFloatDiv               0      0.00%     63.10% # Type of FU issued
system.cpu.iq.FU_type_0::SimdFloatMisc              0      0.00%     63.10% # Type of FU issued
system.cpu.iq.FU_type_0::SimdFloatMult              0      0.00%     63.10% # Type of FU issued
system.cpu.iq.FU_type_0::SimdFloatMultAcc            0      0.00%     63.10% # Type of FU issued
system.cpu.iq.FU_type_0::SimdFloatSqrt              0      0.00%     63.10% # Type of FU issued
system.cpu.iq.FU_type_0::SimdReduceAdd              0      0.00%     63.10% # Type of FU issued
system.cpu.iq.FU_type_0::SimdReduceAlu              0      0.00%     63.10% # Type of FU issued
system.cpu.iq.FU_type_0::SimdReduceCmp              0      0.00%     63.10% # Type of FU issued
system.cpu.iq.FU_type_0::SimdFloatReduceAdd            0      0.00%     63.10% # Type of FU issued
system.cpu.iq.FU_type_0::SimdFloatReduceCmp            0      0.00%     63.10% # Type of FU issued
system.cpu.iq.FU_type_0::SimdAes                    0      0.00%     63.10% # Type of FU issued
system.cpu.iq.FU_type_0::SimdAesMix                 0      0.00%     63.10% # Type of FU issued
system.cpu.iq.FU_type_0::SimdSha1Hash               0      0.00%     63.10% # Type of FU issued
system.cpu.iq.FU_type_0::SimdSha1Hash2              0      0.00%     63.10% # Type of FU issued
system.cpu.iq.FU_type_0::SimdSha256Hash             0      0.00%     63.10% # Type of FU issued
system.cpu.iq.FU_type_0::SimdSha256Hash2            0      0.00%     63.10% # Type of FU issued
system.cpu.iq.FU_type_0::SimdShaSigma2              0      0.00%     63.10% # Type of FU issued
system.cpu.iq.FU_type_0::SimdShaSigma3              0      0.00%     63.10% # Type of FU issued
system.cpu.iq.FU_type_0::SimdPredAlu                0      0.00%     63.10% # Type of FU issued
system.cpu.iq.FU_type_0::MemRead            176198140     27.70%     90.79% # Type of FU issued
system.cpu.iq.FU_type_0::MemWrite            58579504      9.21%    100.00% # Type of FU issued
system.cpu.iq.FU_type_0::FloatMemRead               0      0.00%    100.00% # Type of FU issued
system.cpu.iq.FU_type_0::FloatMemWrite              0      0.00%    100.00% # Type of FU issued
system.cpu.iq.FU_type_0::IprAccess                  0      0.00%    100.00% # Type of FU issued
system.cpu.iq.FU_type_0::InstPrefetch               0      0.00%    100.00% # Type of FU issued
system.cpu.iq.FU_type_0::total              636197581                       # Type of FU issued
system.cpu.iq.fp_alu_accesses                       0                       # Number of floating point alu accesses
system.cpu.iq.fp_inst_queue_reads                   0                       # Number of floating instruction queue reads
system.cpu.iq.fp_inst_queue_wakeup_accesses            0                       # Number of floating instruction queue wakeup accesses
system.cpu.iq.fp_inst_queue_writes                  0                       # Number of floating instruction queue writes
system.cpu.iq.fu_busy_cnt                     6980702                       # FU busy when requested
system.cpu.iq.fu_busy_rate                   0.010973                       # FU busy rate (busy events/executed inst)
system.cpu.iq.fu_full::No_OpClass                   0      0.00%      0.00% # attempts to use FU when none available
system.cpu.iq.fu_full::IntAlu                 1858285     26.62%     26.62% # attempts to use FU when none available
system.cpu.iq.fu_full::IntMult                      1      0.00%     26.62% # attempts to use FU when none available
system.cpu.iq.fu_full::IntDiv                       0      0.00%     26.62% # attempts to use FU when none available
system.cpu.iq.fu_full::FloatAdd                     0      0.00%     26.62% # attempts to use FU when none available
system.cpu.iq.fu_full::FloatCmp                     0      0.00%     26.62% # attempts to use FU when none available
system.cpu.iq.fu_full::FloatCvt                     0      0.00%     26.62% # attempts to use FU when none available
system.cpu.iq.fu_full::FloatMult                    0      0.00%     26.62% # attempts to use FU when none available
system.cpu.iq.fu_full::FloatMultAcc                 0      0.00%     26.62% # attempts to use FU when none available
system.cpu.iq.fu_full::FloatDiv                     0      0.00%     26.62% # attempts to use FU when none available
system.cpu.iq.fu_full::FloatMisc                    0      0.00%     26.62% # attempts to use FU when none available
system.cpu.iq.fu_full::FloatSqrt                    0      0.00%     26.62% # attempts to use FU when none available
system.cpu.iq.fu_full::SimdAdd                      0      0.00%     26.62% # attempts to use FU when none available
system.cpu.iq.fu_full::SimdAddAcc                   0      0.00%     26.62% # attempts to use FU when none available
system.cpu.iq.fu_full::SimdAlu                      3      0.00%     26.62% # attempts to use FU when none available
system.cpu.iq.fu_full::SimdCmp                      6      0.00%     26.62% # attempts to use FU when none available
system.cpu.iq.fu_full::SimdCvt                      0      0.00%     26.62% # attempts to use FU when none available
system.cpu.iq.fu_full::SimdMisc                     0      0.00%     26.62% # attempts to use FU when none available
system.cpu.iq.fu_full::SimdMult                     0      0.00%     26.62% # attempts to use FU when none available
system.cpu.iq.fu_full::SimdMultAcc                  0      0.00%     26.62% # attempts to use FU when none available
system.cpu.iq.fu_full::SimdShift                    0      0.00%     26.62% # attempts to use FU when none available
system.cpu.iq.fu_full::SimdShiftAcc                 0      0.00%     26.62% # attempts to use FU when none available
system.cpu.iq.fu_full::SimdDiv                      0      0.00%     26.62% # attempts to use FU when none available
system.cpu.iq.fu_full::SimdSqrt                     0      0.00%     26.62% # attempts to use FU when none available
system.cpu.iq.fu_full::SimdFloatAdd                 0      0.00%     26.62% # attempts to use FU when none available
system.cpu.iq.fu_full::SimdFloatAlu                 0      0.00%     26.62% # attempts to use FU when none available
system.cpu.iq.fu_full::SimdFloatCmp                 0      0.00%     26.62% # attempts to use FU when none available
system.cpu.iq.fu_full::SimdFloatCvt                 0      0.00%     26.62% # attempts to use FU when none available
system.cpu.iq.fu_full::SimdFloatDiv                 0      0.00%     26.62% # attempts to use FU when none available
system.cpu.iq.fu_full::SimdFloatMisc                0      0.00%     26.62% # attempts to use FU when none available
system.cpu.iq.fu_full::SimdFloatMult                0      0.00%     26.62% # attempts to use FU when none available
system.cpu.iq.fu_full::SimdFloatMultAcc             0      0.00%     26.62% # attempts to use FU when none available
system.cpu.iq.fu_full::SimdFloatSqrt                0      0.00%     26.62% # attempts to use FU when none available
system.cpu.iq.fu_full::SimdReduceAdd                0      0.00%     26.62% # attempts to use FU when none available
system.cpu.iq.fu_full::SimdReduceAlu                0      0.00%     26.62% # attempts to use FU when none available
system.cpu.iq.fu_full::SimdReduceCmp                0      0.00%     26.62% # attempts to use FU when none available
system.cpu.iq.fu_full::SimdFloatReduceAdd            0      0.00%     26.62% # attempts to use FU when none available
system.cpu.iq.fu_full::SimdFloatReduceCmp            0      0.00%     26.62% # attempts to use FU when none available
system.cpu.iq.fu_full::SimdAes                      0      0.00%     26.62% # attempts to use FU when none available
system.cpu.iq.fu_full::SimdAesMix                   0      0.00%     26.62% # attempts to use FU when none available
system.cpu.iq.fu_full::SimdSha1Hash                 0      0.00%     26.62% # attempts to use FU when none available
system.cpu.iq.fu_full::SimdSha1Hash2                0      0.00%     26.62% # attempts to use FU when none available
system.cpu.iq.fu_full::SimdSha256Hash               0      0.00%     26.62% # attempts to use FU when none available
system.cpu.iq.fu_full::SimdSha256Hash2              0      0.00%     26.62% # attempts to use FU when none available
system.cpu.iq.fu_full::SimdShaSigma2                0      0.00%     26.62% # attempts to use FU when none available
system.cpu.iq.fu_full::SimdShaSigma3                0      0.00%     26.62% # attempts to use FU when none available
system.cpu.iq.fu_full::SimdPredAlu                  0      0.00%     26.62% # attempts to use FU when none available
system.cpu.iq.fu_full::MemRead                4762364     68.22%     94.84% # attempts to use FU when none available
system.cpu.iq.fu_full::MemWrite                360043      5.16%    100.00% # attempts to use FU when none available
system.cpu.iq.fu_full::FloatMemRead                 0      0.00%    100.00% # attempts to use FU when none available
system.cpu.iq.fu_full::FloatMemWrite                0      0.00%    100.00% # attempts to use FU when none available
system.cpu.iq.fu_full::IprAccess                    0      0.00%    100.00% # attempts to use FU when none available
system.cpu.iq.fu_full::InstPrefetch                 0      0.00%    100.00% # attempts to use FU when none available
system.cpu.iq.int_alu_accesses              643175974                       # Number of integer alu accesses
system.cpu.iq.int_inst_queue_reads         1690591449                       # Number of integer instruction queue reads
system.cpu.iq.int_inst_queue_wakeup_accesses    603769572                       # Number of integer instruction queue wakeup accesses
system.cpu.iq.int_inst_queue_writes         827666602                       # Number of integer instruction queue writes
system.cpu.iq.iqInstsAdded                  669566181                       # Number of instructions added to the IQ (excludes non-spec)
system.cpu.iq.iqInstsIssued                 636197581                       # Number of instructions issued
system.cpu.iq.iqNonSpecInstsAdded                 134                       # Number of non-speculative instructions added to the IQ
system.cpu.iq.iqSquashedInstsExamined       158066217                       # Number of squashed instructions iterated over during squash; mainly for profiling
system.cpu.iq.iqSquashedInstsIssued            507700                       # Number of squashed instructions issued
system.cpu.iq.iqSquashedNonSpecRemoved             47                       # Number of squashed non-spec instructions that were removed
system.cpu.iq.iqSquashedOperandsExamined    114156300                       # Number of squashed operands that are examined and possibly removed from graph
system.cpu.iq.issued_per_cycle::samples     410712389                       # Number of insts issued each cycle
system.cpu.iq.issued_per_cycle::mean         1.549010                       # Number of insts issued each cycle
system.cpu.iq.issued_per_cycle::stdev        1.934879                       # Number of insts issued each cycle
system.cpu.iq.issued_per_cycle::underflows            0      0.00%      0.00% # Number of insts issued each cycle
system.cpu.iq.issued_per_cycle::0           191123719     46.53%     46.53% # Number of insts issued each cycle
system.cpu.iq.issued_per_cycle::1            58386784     14.22%     60.75% # Number of insts issued each cycle
system.cpu.iq.issued_per_cycle::2            51489758     12.54%     73.29% # Number of insts issued each cycle
system.cpu.iq.issued_per_cycle::3            37673492      9.17%     82.46% # Number of insts issued each cycle
system.cpu.iq.issued_per_cycle::4            33241533      8.09%     90.55% # Number of insts issued each cycle
system.cpu.iq.issued_per_cycle::5            17372022      4.23%     94.78% # Number of insts issued each cycle
system.cpu.iq.issued_per_cycle::6            11773969      2.87%     97.65% # Number of insts issued each cycle
system.cpu.iq.issued_per_cycle::7             5868147      1.43%     99.08% # Number of insts issued each cycle
system.cpu.iq.issued_per_cycle::8             3782965      0.92%    100.00% # Number of insts issued each cycle
system.cpu.iq.issued_per_cycle::overflows            0      0.00%    100.00% # Number of insts issued each cycle
system.cpu.iq.issued_per_cycle::min_value            0                       # Number of insts issued each cycle
system.cpu.iq.issued_per_cycle::max_value            8                       # Number of insts issued each cycle
system.cpu.iq.issued_per_cycle::total       410712389                       # Number of insts issued each cycle
system.cpu.iq.rate                           1.548691                       # Inst issue rate
system.cpu.iq.vec_alu_accesses                   2288                       # Number of vector alu accesses
system.cpu.iq.vec_inst_queue_reads               4504                       # Number of vector instruction queue reads
system.cpu.iq.vec_inst_queue_wakeup_accesses         1358                       # Number of vector instruction queue wakeup accesses
system.cpu.iq.vec_inst_queue_writes              4059                       # Number of vector instruction queue writes
system.cpu.itb.accesses                             0                       # DTB accesses
system.cpu.itb.align_faults                         0                       # Number of TLB faults due to alignment restrictions
system.cpu.itb.domain_faults                        0                       # Number of TLB faults due to domain restrictions
system.cpu.itb.flush_entries                        0                       # Number of entries that have been flushed from TLB
system.cpu.itb.flush_tlb                            6                       # Number of times complete TLB was flushed
system.cpu.itb.flush_tlb_asid                       0                       # Number of times TLB was flushed by ASID
system.cpu.itb.flush_tlb_mva                        0                       # Number of times TLB was flushed by MVA
system.cpu.itb.flush_tlb_mva_asid                   0                       # Number of times TLB was flushed by MVA & ASID
system.cpu.itb.hits                                 0                       # DTB hits
system.cpu.itb.inst_accesses                        0                       # ITB inst accesses
system.cpu.itb.inst_hits                            0                       # ITB inst hits
system.cpu.itb.inst_misses                          0                       # ITB inst misses
system.cpu.itb.misses                               0                       # DTB misses
system.cpu.itb.perms_faults                         0                       # Number of TLB faults due to permissions restrictions
system.cpu.itb.prefetch_faults                      0                       # Number of TLB faults due to prefetch
system.cpu.itb.read_accesses                        0                       # DTB read accesses
system.cpu.itb.read_hits                            0                       # DTB read hits
system.cpu.itb.read_misses                          0                       # DTB read misses
system.cpu.itb.stage2_mmu.stage2_tlb.accesses            0                       # DTB accesses
system.cpu.itb.stage2_mmu.stage2_tlb.align_faults            0                       # Number of TLB faults due to alignment restrictions
system.cpu.itb.stage2_mmu.stage2_tlb.domain_faults            0                       # Number of TLB faults due to domain restrictions
system.cpu.itb.stage2_mmu.stage2_tlb.flush_entries            0                       # Number of entries that have been flushed from TLB
system.cpu.itb.stage2_mmu.stage2_tlb.flush_tlb            0                       # Number of times complete TLB was flushed
system.cpu.itb.stage2_mmu.stage2_tlb.flush_tlb_asid            0                       # Number of times TLB was flushed by ASID
system.cpu.itb.stage2_mmu.stage2_tlb.flush_tlb_mva            0                       # Number of times TLB was flushed by MVA
system.cpu.itb.stage2_mmu.stage2_tlb.flush_tlb_mva_asid            0                       # Number of times TLB was flushed by MVA & ASID
system.cpu.itb.stage2_mmu.stage2_tlb.hits            0                       # DTB hits
system.cpu.itb.stage2_mmu.stage2_tlb.inst_accesses            0                       # ITB inst accesses
system.cpu.itb.stage2_mmu.stage2_tlb.inst_hits            0                       # ITB inst hits
system.cpu.itb.stage2_mmu.stage2_tlb.inst_misses            0                       # ITB inst misses
system.cpu.itb.stage2_mmu.stage2_tlb.misses            0                       # DTB misses
system.cpu.itb.stage2_mmu.stage2_tlb.perms_faults            0                       # Number of TLB faults due to permissions restrictions
system.cpu.itb.stage2_mmu.stage2_tlb.prefetch_faults            0                       # Number of TLB faults due to prefetch
system.cpu.itb.stage2_mmu.stage2_tlb.read_accesses            0                       # DTB read accesses
system.cpu.itb.stage2_mmu.stage2_tlb.read_hits            0                       # DTB read hits
system.cpu.itb.stage2_mmu.stage2_tlb.read_misses            0                       # DTB read misses
system.cpu.itb.stage2_mmu.stage2_tlb.walker.walkRequestOrigin_Requested::Data            0                       # Table walker requests started/completed, data/inst
system.cpu.itb.stage2_mmu.stage2_tlb.walker.walkRequestOrigin_Requested::Inst            0                       # Table walker requests started/completed, data/inst
system.cpu.itb.stage2_mmu.stage2_tlb.walker.walkRequestOrigin_Requested::total            0                       # Table walker requests started/completed, data/inst
system.cpu.itb.stage2_mmu.stage2_tlb.walker.walkRequestOrigin_Completed::Data            0                       # Table walker requests started/completed, data/inst
system.cpu.itb.stage2_mmu.stage2_tlb.walker.walkRequestOrigin_Completed::Inst            0                       # Table walker requests started/completed, data/inst
system.cpu.itb.stage2_mmu.stage2_tlb.walker.walkRequestOrigin_Completed::total            0                       # Table walker requests started/completed, data/inst
system.cpu.itb.stage2_mmu.stage2_tlb.walker.walkRequestOrigin::total            0                       # Table walker requests started/completed, data/inst
system.cpu.itb.stage2_mmu.stage2_tlb.walker.walks            0                       # Table walker walks requested
system.cpu.itb.stage2_mmu.stage2_tlb.write_accesses            0                       # DTB write accesses
system.cpu.itb.stage2_mmu.stage2_tlb.write_hits            0                       # DTB write hits
system.cpu.itb.stage2_mmu.stage2_tlb.write_misses            0                       # DTB write misses
system.cpu.itb.walker.walkRequestOrigin_Requested::Data            0                       # Table walker requests started/completed, data/inst
system.cpu.itb.walker.walkRequestOrigin_Requested::Inst            0                       # Table walker requests started/completed, data/inst
system.cpu.itb.walker.walkRequestOrigin_Requested::total            0                       # Table walker requests started/completed, data/inst
system.cpu.itb.walker.walkRequestOrigin_Completed::Data            0                       # Table walker requests started/completed, data/inst
system.cpu.itb.walker.walkRequestOrigin_Completed::Inst            0                       # Table walker requests started/completed, data/inst
system.cpu.itb.walker.walkRequestOrigin_Completed::total            0                       # Table walker requests started/completed, data/inst
system.cpu.itb.walker.walkRequestOrigin::total            0                       # Table walker requests started/completed, data/inst
system.cpu.itb.walker.walks                         0                       # Table walker walks requested
system.cpu.itb.write_accesses                       0                       # DTB write accesses
system.cpu.itb.write_hits                           0                       # DTB write hits
system.cpu.itb.write_misses                         0                       # DTB write misses
system.cpu.memDep0.conflictingLoads          31261233                       # Number of conflicting loads.
system.cpu.memDep0.conflictingStores         18734361                       # Number of conflicting stores.
system.cpu.memDep0.insertedLoads            171277677                       # Number of loads inserted to the mem dependence unit.
system.cpu.memDep0.insertedStores            64232623                       # Number of stores inserted to the mem dependence unit.
system.cpu.misc_regfile_reads               438939726                       # number of misc regfile reads
system.cpu.misc_regfile_writes                    229                       # number of misc regfile writes
system.cpu.numCycles                        410796984                       # number of cpu cycles simulated
system.cpu.numWorkItemsCompleted                    0                       # number of work items this cpu completed
system.cpu.numWorkItemsStarted                      0                       # number of work items this cpu started
system.cpu.rename.BlockCycles               102366566                       # Number of cycles rename is blocking
system.cpu.rename.CommittedMaps             554014047                       # Number of HB maps that are committed
system.cpu.rename.IQFullEvents               17913645                       # Number of times rename has blocked due to IQ full
system.cpu.rename.IdleCycles                 97873556                       # Number of cycles rename is idle
system.cpu.rename.LQFullEvents               43989015                       # Number of times rename has blocked due to LQ full
system.cpu.rename.ROBFullEvents                508870                       # Number of times rename has blocked due to ROB full
system.cpu.rename.RenameLookups            1180913523                       # Number of register rename lookups that rename has made
system.cpu.rename.RenamedInsts              704069307                       # Number of instructions processed by rename
system.cpu.rename.RenamedOperands           771654667                       # Number of destination operands rename has renamed
system.cpu.rename.RunCycles                 125993421                       # Number of cycles rename is running
system.cpu.rename.SQFullEvents               23775726                       # Number of times rename has blocked due to SQ full
system.cpu.rename.SquashCycles                6127317                       # Number of cycles rename is squashing
system.cpu.rename.UnblockCycles              78331789                       # Number of cycles rename is unblocking
system.cpu.rename.UndoneMaps                217640524                       # Number of HB maps that are undone due to squashing
system.cpu.rename.int_rename_lookups        934077141                       # Number of integer rename lookups
system.cpu.rename.serializeStallCycles          19740                       # count of cycles rename stalled for serializing inst
system.cpu.rename.serializingInsts                359                       # count of serializing insts renamed
system.cpu.rename.skidInsts                  65900396                       # count of insts added to the skid buffer
system.cpu.rename.tempSerializingInsts            136                       # count of temporary serializing insts renamed
system.cpu.rename.vec_rename_lookups             3178                       # Number of vector rename lookups
system.cpu.rob.rob_reads                   1030430815                       # The number of ROB reads
system.cpu.rob.rob_writes                  1364499754                       # The number of ROB writes
system.cpu.timesIdled                             760                       # Number of times that the entire CPU went into an idle state and unscheduled itself
system.cpu.vec_regfile_reads                     1926                       # number of vector regfile reads
system.cpu.vec_regfile_writes                     387                       # number of vector regfile writes
system.cpu.workload.numSyscalls                    29                       # Number of system calls
system.membus.snoop_filter.hit_multi_requests            0                       # Number of requests hitting in the snoop filter with multiple (>1) holders of the requested data.
system.membus.snoop_filter.hit_multi_snoops            0                       # Number of snoops hitting in the snoop filter with multiple (>1) holders of the requested data.
system.membus.snoop_filter.hit_single_requests      1450682                       # Number of requests hitting in the snoop filter with a single holder of the requested data.
system.membus.snoop_filter.hit_single_snoops            0                       # Number of snoops hitting in the snoop filter with a single holder of the requested data.
system.membus.snoop_filter.tot_requests       2918926                       # Total number of requests made to the snoop filter.
system.membus.snoop_filter.tot_snoops               0                       # Total number of snoops made to the snoop filter.
system.tol2bus.snoop_filter.hit_multi_requests            9                       # Number of requests hitting in the snoop filter with multiple (>1) holders of the requested data.
system.tol2bus.snoop_filter.hit_multi_snoops            0                       # Number of snoops hitting in the snoop filter with multiple (>1) holders of the requested data.
system.tol2bus.snoop_filter.hit_single_requests      3395260                       # Number of requests hitting in the snoop filter with a single holder of the requested data.
system.tol2bus.snoop_filter.hit_single_snoops       308235                       # Number of snoops hitting in the snoop filter with a single holder of the requested data.
system.tol2bus.snoop_filter.tot_requests      6795692                       # Total number of requests made to the snoop filter.
system.tol2bus.snoop_filter.tot_snoops         308235                       # Total number of snoops made to the snoop filter.
system.membus.trans_dist::ReadResp             895641                       # Transaction distribution
system.membus.trans_dist::WritebackDirty       747092                       # Transaction distribution
system.membus.trans_dist::CleanEvict           703582                       # Transaction distribution
system.membus.trans_dist::ReadExReq            552858                       # Transaction distribution
system.membus.trans_dist::ReadExResp           552858                       # Transaction distribution
system.membus.trans_dist::ReadSharedReq        895641                       # Transaction distribution
system.membus.trans_dist::InvalidateReq         19753                       # Transaction distribution
system.membus.pkt_count_system.l2.mem_side::system.mem_ctrls.port      4367425                       # Packet count per connected master and slave (bytes)
system.membus.pkt_count::total                4367425                       # Packet count per connected master and slave (bytes)
system.membus.pkt_size_system.l2.mem_side::system.mem_ctrls.port    140517824                       # Cumulative packet size per connected master and slave (bytes)
system.membus.pkt_size::total               140517824                       # Cumulative packet size per connected master and slave (bytes)
system.membus.snoops                                0                       # Total snoops (count)
system.membus.snoopTraffic                          0                       # Total snoop traffic (bytes)
system.membus.snoop_fanout::samples           1468252                       # Request fanout histogram
system.membus.snoop_fanout::mean                    0                       # Request fanout histogram
system.membus.snoop_fanout::stdev                   0                       # Request fanout histogram
system.membus.snoop_fanout::underflows              0      0.00%      0.00% # Request fanout histogram
system.membus.snoop_fanout::0                 1468252    100.00%    100.00% # Request fanout histogram
system.membus.snoop_fanout::1                       0      0.00%    100.00% # Request fanout histogram
system.membus.snoop_fanout::overflows               0      0.00%    100.00% # Request fanout histogram
system.membus.snoop_fanout::min_value               0                       # Request fanout histogram
system.membus.snoop_fanout::max_value               0                       # Request fanout histogram
system.membus.snoop_fanout::total             1468252                       # Request fanout histogram
system.membus.reqLayer0.occupancy          6245884500                       # Layer occupancy (ticks)
system.membus.reqLayer0.utilization               3.0                       # Layer utilization (%)
system.membus.respLayer1.occupancy         7829844000                       # Layer occupancy (ticks)
system.membus.respLayer1.utilization              3.8                       # Layer utilization (%)
system.membus.power_state.pwrStateResidencyTicks::UNDEFINED 205398491500                       # Cumulative time (in ticks) in various power states
system.tol2bus.trans_dist::ReadResp           2475430                       # Transaction distribution
system.tol2bus.trans_dist::WritebackDirty      2108368                       # Transaction distribution
system.tol2bus.trans_dist::CleanEvict         2890406                       # Transaction distribution
system.tol2bus.trans_dist::ReadExReq           905244                       # Transaction distribution
system.tol2bus.trans_dist::ReadExResp          905243                       # Transaction distribution
system.tol2bus.trans_dist::ReadCleanReq          1074                       # Transaction distribution
system.tol2bus.trans_dist::ReadSharedReq      2474357                       # Transaction distribution
system.tol2bus.trans_dist::InvalidateReq        19757                       # Transaction distribution
system.tol2bus.trans_dist::InvalidateResp        19757                       # Transaction distribution
system.tol2bus.pkt_count_system.cpu.icache.mem_side::system.l2.cpu_side         2148                       # Packet count per connected master and slave (bytes)
system.tol2bus.pkt_count_system.cpu.dcache.mem_side::system.l2.cpu_side     10193974                       # Packet count per connected master and slave (bytes)
system.tol2bus.pkt_count::total              10196122                       # Packet count per connected master and slave (bytes)
system.tol2bus.pkt_size_system.cpu.icache.mem_side::system.l2.cpu_side        68736                       # Cumulative packet size per connected master and slave (bytes)
system.tol2bus.pkt_size_system.cpu.dcache.mem_side::system.l2.cpu_side    303416000                       # Cumulative packet size per connected master and slave (bytes)
system.tol2bus.pkt_size::total              303484736                       # Cumulative packet size per connected master and slave (bytes)
system.tol2bus.snoops                         1603514                       # Total snoops (count)
system.tol2bus.snoopTraffic                  47813888                       # Total snoop traffic (bytes)
system.tol2bus.snoop_fanout::samples          5003946                       # Request fanout histogram
system.tol2bus.snoop_fanout::mean            0.061600                       # Request fanout histogram
system.tol2bus.snoop_fanout::stdev           0.240428                       # Request fanout histogram
system.tol2bus.snoop_fanout::underflows             0      0.00%      0.00% # Request fanout histogram
system.tol2bus.snoop_fanout::0                4695702     93.84%     93.84% # Request fanout histogram
system.tol2bus.snoop_fanout::1                 308244      6.16%    100.00% # Request fanout histogram
system.tol2bus.snoop_fanout::2                      0      0.00%    100.00% # Request fanout histogram
system.tol2bus.snoop_fanout::overflows              0      0.00%    100.00% # Request fanout histogram
system.tol2bus.snoop_fanout::min_value              0                       # Request fanout histogram
system.tol2bus.snoop_fanout::max_value              1                       # Request fanout histogram
system.tol2bus.snoop_fanout::total            5003946                       # Request fanout histogram
system.tol2bus.reqLayer0.occupancy         4759122000                       # Layer occupancy (ticks)
system.tol2bus.reqLayer0.utilization              2.3                       # Layer utilization (%)
system.tol2bus.respLayer1.occupancy        5079277000                       # Layer occupancy (ticks)
system.tol2bus.respLayer1.utilization             2.5                       # Layer utilization (%)
system.tol2bus.respLayer0.occupancy           1611000                       # Layer occupancy (ticks)
system.tol2bus.respLayer0.utilization             0.0                       # Layer utilization (%)
system.tol2bus.power_state.pwrStateResidencyTicks::UNDEFINED 205398491500                       # Cumulative time (in ticks) in various power states
system.voltage_domain.voltage                       1                       # Voltage in Volts
system.clk_domain.clock                          1000                       # Clock period in ticks
system.l2.demand_hits::.cpu.inst                    1                       # number of demand (read+write) hits
system.l2.demand_hits::.cpu.data              1932173                       # number of demand (read+write) hits
system.l2.demand_hits::total                  1932174                       # number of demand (read+write) hits
system.l2.overall_hits::.cpu.inst                   1                       # number of overall hits
system.l2.overall_hits::.cpu.data             1932173                       # number of overall hits
system.l2.overall_hits::total                 1932174                       # number of overall hits
system.l2.demand_misses::.cpu.inst               1073                       # number of demand (read+write) misses
system.l2.demand_misses::.cpu.data            1447428                       # number of demand (read+write) misses
system.l2.demand_misses::total                1448501                       # number of demand (read+write) misses
system.l2.overall_misses::.cpu.inst              1073                       # number of overall misses
system.l2.overall_misses::.cpu.data           1447428                       # number of overall misses
system.l2.overall_misses::total               1448501                       # number of overall misses
system.l2.demand_miss_latency::.cpu.inst     86112000                       # number of demand (read+write) miss cycles
system.l2.demand_miss_latency::.cpu.data 134065888000                       # number of demand (read+write) miss cycles
system.l2.demand_miss_latency::total     134152000000                       # number of demand (read+write) miss cycles
system.l2.overall_miss_latency::.cpu.inst     86112000                       # number of overall miss cycles
system.l2.overall_miss_latency::.cpu.data 134065888000                       # number of overall miss cycles
system.l2.overall_miss_latency::total    134152000000                       # number of overall miss cycles
system.l2.demand_accesses::.cpu.inst             1074                       # number of demand (read+write) accesses
system.l2.demand_accesses::.cpu.data          3379601                       # number of demand (read+write) accesses
system.l2.demand_accesses::total              3380675                       # number of demand (read+write) accesses
system.l2.overall_accesses::.cpu.inst            1074                       # number of overall (read+write) accesses
system.l2.overall_accesses::.cpu.data         3379601                       # number of overall (read+write) accesses
system.l2.overall_accesses::total             3380675                       # number of overall (read+write) accesses
system.l2.demand_miss_rate::.cpu.inst        0.999069                       # miss rate for demand accesses
system.l2.demand_miss_rate::.cpu.data        0.428284                       # miss rate for demand accesses
system.l2.demand_miss_rate::total            0.428465                       # miss rate for demand accesses
system.l2.overall_miss_rate::.cpu.inst       0.999069                       # miss rate for overall accesses
system.l2.overall_miss_rate::.cpu.data       0.428284                       # miss rate for overall accesses
system.l2.overall_miss_rate::total           0.428465                       # miss rate for overall accesses
system.l2.demand_avg_miss_latency::.cpu.inst 80253.494874                       # average overall miss latency
system.l2.demand_avg_miss_latency::.cpu.data 92623.528079                       # average overall miss latency
system.l2.demand_avg_miss_latency::total 92614.364781                       # average overall miss latency
system.l2.overall_avg_miss_latency::.cpu.inst 80253.494874                       # average overall miss latency
system.l2.overall_avg_miss_latency::.cpu.data 92623.528079                       # average overall miss latency
system.l2.overall_avg_miss_latency::total 92614.364781                       # average overall miss latency
system.l2.blocked_cycles::no_mshrs                  0                       # number of cycles access was blocked
system.l2.blocked_cycles::no_targets                0                       # number of cycles access was blocked
system.l2.blocked::no_mshrs                         0                       # number of cycles access was blocked
system.l2.blocked::no_targets                       0                       # number of cycles access was blocked
system.l2.avg_blocked_cycles::no_mshrs            nan                       # average number of cycles each access was blocked
system.l2.avg_blocked_cycles::no_targets          nan                       # average number of cycles each access was blocked
system.l2.writebacks::.writebacks              747092                       # number of writebacks
system.l2.writebacks::total                    747092                       # number of writebacks
system.l2.demand_mshr_misses::.cpu.inst          1073                       # number of demand (read+write) MSHR misses
system.l2.demand_mshr_misses::.cpu.data       1447428                       # number of demand (read+write) MSHR misses
system.l2.demand_mshr_misses::total           1448501                       # number of demand (read+write) MSHR misses
system.l2.overall_mshr_misses::.cpu.inst         1073                       # number of overall MSHR misses
system.l2.overall_mshr_misses::.cpu.data      1447428                       # number of overall MSHR misses
system.l2.overall_mshr_misses::total          1448501                       # number of overall MSHR misses
system.l2.demand_mshr_miss_latency::.cpu.inst     75382000                       # number of demand (read+write) MSHR miss cycles
system.l2.demand_mshr_miss_latency::.cpu.data 119591627501                       # number of demand (read+write) MSHR miss cycles
system.l2.demand_mshr_miss_latency::total 119667009501                       # number of demand (read+write) MSHR miss cycles
system.l2.overall_mshr_miss_latency::.cpu.inst     75382000                       # number of overall MSHR miss cycles
system.l2.overall_mshr_miss_latency::.cpu.data 119591627501                       # number of overall MSHR miss cycles
system.l2.overall_mshr_miss_latency::total 119667009501                       # number of overall MSHR miss cycles
system.l2.demand_mshr_miss_rate::.cpu.inst     0.999069                       # mshr miss rate for demand accesses
system.l2.demand_mshr_miss_rate::.cpu.data     0.428284                       # mshr miss rate for demand accesses
system.l2.demand_mshr_miss_rate::total       0.428465                       # mshr miss rate for demand accesses
system.l2.overall_mshr_miss_rate::.cpu.inst     0.999069                       # mshr miss rate for overall accesses
system.l2.overall_mshr_miss_rate::.cpu.data     0.428284                       # mshr miss rate for overall accesses
system.l2.overall_mshr_miss_rate::total      0.428465                       # mshr miss rate for overall accesses
system.l2.demand_avg_mshr_miss_latency::.cpu.inst 70253.494874                       # average overall mshr miss latency
system.l2.demand_avg_mshr_miss_latency::.cpu.data 82623.541552                       # average overall mshr miss latency
system.l2.demand_avg_mshr_miss_latency::total 82614.378244                       # average overall mshr miss latency
system.l2.overall_avg_mshr_miss_latency::.cpu.inst 70253.494874                       # average overall mshr miss latency
system.l2.overall_avg_mshr_miss_latency::.cpu.data 82623.541552                       # average overall mshr miss latency
system.l2.overall_avg_mshr_miss_latency::total 82614.378244                       # average overall mshr miss latency
system.l2.replacements                        1603514                       # number of replacements
system.l2.WritebackDirty_hits::.writebacks      1361276                       # number of WritebackDirty hits
system.l2.WritebackDirty_hits::total          1361276                       # number of WritebackDirty hits
system.l2.WritebackDirty_accesses::.writebacks      1361276                       # number of WritebackDirty accesses(hits+misses)
system.l2.WritebackDirty_accesses::total      1361276                       # number of WritebackDirty accesses(hits+misses)
system.l2.CleanEvict_mshr_misses::.writebacks       155395                       # number of CleanEvict MSHR misses
system.l2.CleanEvict_mshr_misses::total        155395                       # number of CleanEvict MSHR misses
system.l2.CleanEvict_mshr_miss_rate::.writebacks          inf                       # mshr miss rate for CleanEvict accesses
system.l2.CleanEvict_mshr_miss_rate::total          inf                       # mshr miss rate for CleanEvict accesses
system.l2.ReadExReq_hits::.cpu.data            352385                       # number of ReadExReq hits
system.l2.ReadExReq_hits::total                352385                       # number of ReadExReq hits
system.l2.ReadExReq_misses::.cpu.data          552859                       # number of ReadExReq misses
system.l2.ReadExReq_misses::total              552859                       # number of ReadExReq misses
system.l2.ReadExReq_miss_latency::.cpu.data  52972475000                       # number of ReadExReq miss cycles
system.l2.ReadExReq_miss_latency::total   52972475000                       # number of ReadExReq miss cycles
system.l2.ReadExReq_accesses::.cpu.data        905244                       # number of ReadExReq accesses(hits+misses)
system.l2.ReadExReq_accesses::total            905244                       # number of ReadExReq accesses(hits+misses)
system.l2.ReadExReq_miss_rate::.cpu.data     0.610729                       # miss rate for ReadExReq accesses
system.l2.ReadExReq_miss_rate::total         0.610729                       # miss rate for ReadExReq accesses
system.l2.ReadExReq_avg_miss_latency::.cpu.data 95815.524392                       # average ReadExReq miss latency
system.l2.ReadExReq_avg_miss_latency::total 95815.524392                       # average ReadExReq miss latency
system.l2.ReadExReq_mshr_misses::.cpu.data       552859                       # number of ReadExReq MSHR misses
system.l2.ReadExReq_mshr_misses::total         552859                       # number of ReadExReq MSHR misses
system.l2.ReadExReq_mshr_miss_latency::.cpu.data  47443894501                       # number of ReadExReq MSHR miss cycles
system.l2.ReadExReq_mshr_miss_latency::total  47443894501                       # number of ReadExReq MSHR miss cycles
system.l2.ReadExReq_mshr_miss_rate::.cpu.data     0.610729                       # mshr miss rate for ReadExReq accesses
system.l2.ReadExReq_mshr_miss_rate::total     0.610729                       # mshr miss rate for ReadExReq accesses
system.l2.ReadExReq_avg_mshr_miss_latency::.cpu.data 85815.541578                       # average ReadExReq mshr miss latency
system.l2.ReadExReq_avg_mshr_miss_latency::total 85815.541578                       # average ReadExReq mshr miss latency
system.l2.ReadCleanReq_hits::.cpu.inst              1                       # number of ReadCleanReq hits
system.l2.ReadCleanReq_hits::total                  1                       # number of ReadCleanReq hits
system.l2.ReadCleanReq_misses::.cpu.inst         1073                       # number of ReadCleanReq misses
system.l2.ReadCleanReq_misses::total             1073                       # number of ReadCleanReq misses
system.l2.ReadCleanReq_miss_latency::.cpu.inst     86112000                       # number of ReadCleanReq miss cycles
system.l2.ReadCleanReq_miss_latency::total     86112000                       # number of ReadCleanReq miss cycles
system.l2.ReadCleanReq_accesses::.cpu.inst         1074                       # number of ReadCleanReq accesses(hits+misses)
system.l2.ReadCleanReq_accesses::total           1074                       # number of ReadCleanReq accesses(hits+misses)
system.l2.ReadCleanReq_miss_rate::.cpu.inst     0.999069                       # miss rate for ReadCleanReq accesses
system.l2.ReadCleanReq_miss_rate::total      0.999069                       # miss rate for ReadCleanReq accesses
system.l2.ReadCleanReq_avg_miss_latency::.cpu.inst 80253.494874                       # average ReadCleanReq miss latency
system.l2.ReadCleanReq_avg_miss_latency::total 80253.494874                       # average ReadCleanReq miss latency
system.l2.ReadCleanReq_mshr_misses::.cpu.inst         1073                       # number of ReadCleanReq MSHR misses
system.l2.ReadCleanReq_mshr_misses::total         1073                       # number of ReadCleanReq MSHR misses
system.l2.ReadCleanReq_mshr_miss_latency::.cpu.inst     75382000                       # number of ReadCleanReq MSHR miss cycles
system.l2.ReadCleanReq_mshr_miss_latency::total     75382000                       # number of ReadCleanReq MSHR miss cycles
system.l2.ReadCleanReq_mshr_miss_rate::.cpu.inst     0.999069                       # mshr miss rate for ReadCleanReq accesses
system.l2.ReadCleanReq_mshr_miss_rate::total     0.999069                       # mshr miss rate for ReadCleanReq accesses
[...]
system.cpu.dcache.overall_hits::.cpu.data    185004162                       # number of overall hits
system.cpu.dcache.overall_hits::total       185004162                       # number of overall hits
system.cpu.dcache.demand_misses::.cpu.data      8145071                       # number of demand (read+write) misses
system.cpu.dcache.demand_misses::total        8145071                       # number of demand (read+write) misses
system.cpu.dcache.overall_misses::.cpu.data      8145117                       # number of overall misses
system.cpu.dcache.overall_misses::total       8145117                       # number of overall misses
system.cpu.dcache.demand_miss_latency::.cpu.data 426853831476                       # number of demand (read+write) miss cycles
system.cpu.dcache.demand_miss_latency::total 426853831476                       # number of demand (read+write) miss cycles
system.cpu.dcache.overall_miss_latency::.cpu.data 426853831476                       # number of overall miss cycles
system.cpu.dcache.overall_miss_latency::total 426853831476                       # number of overall miss cycles
system.cpu.dcache.demand_accesses::.cpu.data    193148591                       # number of demand (read+write) accesses
system.cpu.dcache.demand_accesses::total    193148591                       # number of demand (read+write) accesses
system.cpu.dcache.overall_accesses::.cpu.data    193149279                       # number of overall (read+write) accesses
system.cpu.dcache.overall_accesses::total    193149279                       # number of overall (read+write) accesses
system.cpu.dcache.demand_miss_rate::.cpu.data     0.042170                       # miss rate for demand accesses
system.cpu.dcache.demand_miss_rate::total     0.042170                       # miss rate for demand accesses
system.cpu.dcache.overall_miss_rate::.cpu.data     0.042170                       # miss rate for overall accesses
system.cpu.dcache.overall_miss_rate::total     0.042170                       # miss rate for overall accesses
system.cpu.dcache.demand_avg_miss_latency::.cpu.data 52406.397866                       # average overall miss latency
system.cpu.dcache.demand_avg_miss_latency::total 52406.397866                       # average overall miss latency
system.cpu.dcache.overall_avg_miss_latency::.cpu.data 52406.101898                       # average overall miss latency
system.cpu.dcache.overall_avg_miss_latency::total 52406.101898                       # average overall miss latency
system.cpu.dcache.blocked_cycles::no_mshrs     29322048                       # number of cycles access was blocked
system.cpu.dcache.blocked_cycles::no_targets        28765                       # number of cycles access was blocked
system.cpu.dcache.blocked::no_mshrs           1202821                       # number of cycles access was blocked
system.cpu.dcache.blocked::no_targets             344                       # number of cycles access was blocked
system.cpu.dcache.avg_blocked_cycles::no_mshrs    24.377732                       # average number of cycles each access was blocked
system.cpu.dcache.avg_blocked_cycles::no_targets    83.619186                       # average number of cycles each access was blocked
system.cpu.dcache.writebacks::.writebacks      1361276                       # number of writebacks
system.cpu.dcache.writebacks::total           1361276                       # number of writebacks
system.cpu.dcache.demand_mshr_hits::.cpu.data      4745756                       # number of demand (read+write) MSHR hits
system.cpu.dcache.demand_mshr_hits::total      4745756                       # number of demand (read+write) MSHR hits
system.cpu.dcache.overall_mshr_hits::.cpu.data      4745756                       # number of overall MSHR hits
system.cpu.dcache.overall_mshr_hits::total      4745756                       # number of overall MSHR hits
system.cpu.dcache.demand_mshr_misses::.cpu.data      3399315                       # number of demand (read+write) MSHR misses
system.cpu.dcache.demand_mshr_misses::total      3399315                       # number of demand (read+write) MSHR misses
system.cpu.dcache.overall_mshr_misses::.cpu.data      3399358                       # number of overall MSHR misses
system.cpu.dcache.overall_mshr_misses::total      3399358                       # number of overall MSHR misses
system.cpu.dcache.demand_mshr_miss_latency::.cpu.data 161037264614                       # number of demand (read+write) MSHR miss cycles
system.cpu.dcache.demand_mshr_miss_latency::total 161037264614                       # number of demand (read+write) MSHR miss cycles
system.cpu.dcache.overall_mshr_miss_latency::.cpu.data 161038073114                       # number of overall MSHR miss cycles
system.cpu.dcache.overall_mshr_miss_latency::total 161038073114                       # number of overall MSHR miss cycles
system.cpu.dcache.demand_mshr_miss_rate::.cpu.data     0.017599                       # mshr miss rate for demand accesses
system.cpu.dcache.demand_mshr_miss_rate::total     0.017599                       # mshr miss rate for demand accesses
system.cpu.dcache.overall_mshr_miss_rate::.cpu.data     0.017600                       # mshr miss rate for overall accesses
system.cpu.dcache.overall_mshr_miss_rate::total     0.017600                       # mshr miss rate for overall accesses
system.cpu.dcache.demand_avg_mshr_miss_latency::.cpu.data 47373.445713                       # average overall mshr miss latency
system.cpu.dcache.demand_avg_mshr_miss_latency::total 47373.445713                       # average overall mshr miss latency
system.cpu.dcache.overall_avg_mshr_miss_latency::.cpu.data 47373.084304                       # average overall mshr miss latency
system.cpu.dcache.overall_avg_mshr_miss_latency::total 47373.084304                       # average overall mshr miss latency
system.cpu.dcache.replacements                3395260                       # number of replacements
system.cpu.dcache.ReadReq_hits::.cpu.data    136027111                       # number of ReadReq hits
system.cpu.dcache.ReadReq_hits::total       136027111                       # number of ReadReq hits
system.cpu.dcache.ReadReq_misses::.cpu.data      5451121                       # number of ReadReq misses
system.cpu.dcache.ReadReq_misses::total       5451121                       # number of ReadReq misses
system.cpu.dcache.ReadReq_miss_latency::.cpu.data 258425464000                       # number of ReadReq miss cycles
system.cpu.dcache.ReadReq_miss_latency::total 258425464000                       # number of ReadReq miss cycles
system.cpu.dcache.ReadReq_accesses::.cpu.data    141478232                       # number of ReadReq accesses(hits+misses)
system.cpu.dcache.ReadReq_accesses::total    141478232                       # number of ReadReq accesses(hits+misses)
system.cpu.dcache.ReadReq_miss_rate::.cpu.data     0.038530                       # miss rate for ReadReq accesses
system.cpu.dcache.ReadReq_miss_rate::total     0.038530                       # miss rate for ReadReq accesses
system.cpu.dcache.ReadReq_avg_miss_latency::.cpu.data 47407.765118                       # average ReadReq miss latency
system.cpu.dcache.ReadReq_avg_miss_latency::total 47407.765118                       # average ReadReq miss latency
system.cpu.dcache.ReadReq_mshr_hits::.cpu.data      2976806                       # number of ReadReq MSHR hits
system.cpu.dcache.ReadReq_mshr_hits::total      2976806                       # number of ReadReq MSHR hits
system.cpu.dcache.ReadReq_mshr_misses::.cpu.data      2474315                       # number of ReadReq MSHR misses
system.cpu.dcache.ReadReq_mshr_misses::total      2474315                       # number of ReadReq MSHR misses
system.cpu.dcache.ReadReq_mshr_miss_latency::.cpu.data 101826246000                       # number of ReadReq MSHR miss cycles
system.cpu.dcache.ReadReq_mshr_miss_latency::total 101826246000                       # number of ReadReq MSHR miss cycles
system.cpu.dcache.ReadReq_mshr_miss_rate::.cpu.data     0.017489                       # mshr miss rate for ReadReq accesses
system.cpu.dcache.ReadReq_mshr_miss_rate::total     0.017489                       # mshr miss rate for ReadReq accesses
system.cpu.dcache.ReadReq_avg_mshr_miss_latency::.cpu.data 41153.307481                       # average ReadReq mshr miss latency
system.cpu.dcache.ReadReq_avg_mshr_miss_latency::total 41153.307481                       # average ReadReq mshr miss latency
system.cpu.dcache.WriteReq_hits::.cpu.data     48976409                       # number of WriteReq hits
system.cpu.dcache.WriteReq_hits::total       48976409                       # number of WriteReq hits
system.cpu.dcache.WriteReq_misses::.cpu.data      2674223                       # number of WriteReq misses
system.cpu.dcache.WriteReq_misses::total      2674223                       # number of WriteReq misses
system.cpu.dcache.WriteReq_miss_latency::.cpu.data 167781026282                       # number of WriteReq miss cycles
system.cpu.dcache.WriteReq_miss_latency::total 167781026282                       # number of WriteReq miss cycles
system.cpu.dcache.WriteReq_accesses::.cpu.data     51650632                       # number of WriteReq accesses(hits+misses)
system.cpu.dcache.WriteReq_accesses::total     51650632                       # number of WriteReq accesses(hits+misses)
system.cpu.dcache.WriteReq_miss_rate::.cpu.data     0.051775                       # miss rate for WriteReq accesses
system.cpu.dcache.WriteReq_miss_rate::total     0.051775                       # miss rate for WriteReq accesses
system.cpu.dcache.WriteReq_avg_miss_latency::.cpu.data 62740.102932                       # average WriteReq miss latency
system.cpu.dcache.WriteReq_avg_miss_latency::total 62740.102932                       # average WriteReq miss latency
system.cpu.dcache.WriteReq_mshr_hits::.cpu.data      1768950                       # number of WriteReq MSHR hits
system.cpu.dcache.WriteReq_mshr_hits::total      1768950                       # number of WriteReq MSHR hits
system.cpu.dcache.WriteReq_mshr_misses::.cpu.data       905273                       # number of WriteReq MSHR misses
system.cpu.dcache.WriteReq_mshr_misses::total       905273                       # number of WriteReq MSHR misses
system.cpu.dcache.WriteReq_mshr_miss_latency::.cpu.data  58583404420                       # number of WriteReq MSHR miss cycles
system.cpu.dcache.WriteReq_mshr_miss_latency::total  58583404420                       # number of WriteReq MSHR miss cycles
system.cpu.dcache.WriteReq_mshr_miss_rate::.cpu.data     0.017527                       # mshr miss rate for WriteReq accesses
system.cpu.dcache.WriteReq_mshr_miss_rate::total     0.017527                       # mshr miss rate for WriteReq accesses
system.cpu.dcache.WriteReq_avg_mshr_miss_latency::.cpu.data 64713.522241                       # average WriteReq mshr miss latency
system.cpu.dcache.WriteReq_avg_mshr_miss_latency::total 64713.522241                       # average WriteReq mshr miss latency
system.cpu.dcache.SoftPFReq_hits::.cpu.data          642                       # number of SoftPFReq hits
system.cpu.dcache.SoftPFReq_hits::total           642                       # number of SoftPFReq hits
system.cpu.dcache.SoftPFReq_misses::.cpu.data           46                       # number of SoftPFReq misses
system.cpu.dcache.SoftPFReq_misses::total           46                       # number of SoftPFReq misses
system.cpu.dcache.SoftPFReq_accesses::.cpu.data          688                       # number of SoftPFReq accesses(hits+misses)
system.cpu.dcache.SoftPFReq_accesses::total          688                       # number of SoftPFReq accesses(hits+misses)
system.cpu.dcache.SoftPFReq_miss_rate::.cpu.data     0.066860                       # miss rate for SoftPFReq accesses
system.cpu.dcache.SoftPFReq_miss_rate::total     0.066860                       # miss rate for SoftPFReq accesses
system.cpu.dcache.SoftPFReq_mshr_misses::.cpu.data           43                       # number of SoftPFReq MSHR misses
system.cpu.dcache.SoftPFReq_mshr_misses::total           43                       # number of SoftPFReq MSHR misses
system.cpu.dcache.SoftPFReq_mshr_miss_latency::.cpu.data       808500                       # number of SoftPFReq MSHR miss cycles
system.cpu.dcache.SoftPFReq_mshr_miss_latency::total       808500                       # number of SoftPFReq MSHR miss cycles
system.cpu.dcache.SoftPFReq_mshr_miss_rate::.cpu.data     0.062500                       # mshr miss rate for SoftPFReq accesses
system.cpu.dcache.SoftPFReq_mshr_miss_rate::total     0.062500                       # mshr miss rate for SoftPFReq accesses
system.cpu.dcache.SoftPFReq_avg_mshr_miss_latency::.cpu.data 18802.325581                       # average SoftPFReq mshr miss latency
system.cpu.dcache.SoftPFReq_avg_mshr_miss_latency::total 18802.325581                       # average SoftPFReq mshr miss latency
system.cpu.dcache.WriteLineReq_misses::.cpu.data        19727                       # number of WriteLineReq misses
system.cpu.dcache.WriteLineReq_misses::total        19727                       # number of WriteLineReq misses
system.cpu.dcache.WriteLineReq_miss_latency::.cpu.data    647341194                       # number of WriteLineReq miss cycles
system.cpu.dcache.WriteLineReq_miss_latency::total    647341194                       # number of WriteLineReq miss cycles
system.cpu.dcache.WriteLineReq_accesses::.cpu.data        19727                       # number of WriteLineReq accesses(hits+misses)
system.cpu.dcache.WriteLineReq_accesses::total        19727                       # number of WriteLineReq accesses(hits+misses)
system.cpu.dcache.WriteLineReq_miss_rate::.cpu.data            1                       # miss rate for WriteLineReq accesses
system.cpu.dcache.WriteLineReq_miss_rate::total            1                       # miss rate for WriteLineReq accesses
system.cpu.dcache.WriteLineReq_avg_miss_latency::.cpu.data 32814.984235                       # average WriteLineReq miss latency
system.cpu.dcache.WriteLineReq_avg_miss_latency::total 32814.984235                       # average WriteLineReq miss latency
system.cpu.dcache.WriteLineReq_mshr_misses::.cpu.data        19727                       # number of WriteLineReq MSHR misses
system.cpu.dcache.WriteLineReq_mshr_misses::total        19727                       # number of WriteLineReq MSHR misses
system.cpu.dcache.WriteLineReq_mshr_miss_latency::.cpu.data    627614194                       # number of WriteLineReq MSHR miss cycles
system.cpu.dcache.WriteLineReq_mshr_miss_latency::total    627614194                       # number of WriteLineReq MSHR miss cycles
system.cpu.dcache.WriteLineReq_mshr_miss_rate::.cpu.data            1                       # mshr miss rate for WriteLineReq accesses
system.cpu.dcache.WriteLineReq_mshr_miss_rate::total            1                       # mshr miss rate for WriteLineReq accesses
system.cpu.dcache.WriteLineReq_avg_mshr_miss_latency::.cpu.data 31814.984235                       # average WriteLineReq mshr miss latency
system.cpu.dcache.WriteLineReq_avg_mshr_miss_latency::total 31814.984235                       # average WriteLineReq mshr miss latency
system.cpu.dcache.LoadLockedReq_hits::.cpu.data           79                       # number of LoadLockedReq hits
system.cpu.dcache.LoadLockedReq_hits::total           79                       # number of LoadLockedReq hits
system.cpu.dcache.LoadLockedReq_misses::.cpu.data            4                       # number of LoadLockedReq misses
system.cpu.dcache.LoadLockedReq_misses::total            4                       # number of LoadLockedReq misses
system.cpu.dcache.LoadLockedReq_miss_latency::.cpu.data       346000                       # number of LoadLockedReq miss cycles
system.cpu.dcache.LoadLockedReq_miss_latency::total       346000                       # number of LoadLockedReq miss cycles
system.cpu.dcache.LoadLockedReq_accesses::.cpu.data           83                       # number of LoadLockedReq accesses(hits+misses)
system.cpu.dcache.LoadLockedReq_accesses::total           83                       # number of LoadLockedReq accesses(hits+misses)
system.cpu.dcache.LoadLockedReq_miss_rate::.cpu.data     0.048193                       # miss rate for LoadLockedReq accesses
system.cpu.dcache.LoadLockedReq_miss_rate::total     0.048193                       # miss rate for LoadLockedReq accesses
system.cpu.dcache.LoadLockedReq_avg_miss_latency::.cpu.data        86500                       # average LoadLockedReq miss latency
system.cpu.dcache.LoadLockedReq_avg_miss_latency::total        86500                       # average LoadLockedReq miss latency
system.cpu.dcache.LoadLockedReq_mshr_hits::.cpu.data            4                       # number of LoadLockedReq MSHR hits
system.cpu.dcache.LoadLockedReq_mshr_hits::total            4                       # number of LoadLockedReq MSHR hits
system.cpu.dcache.StoreCondReq_hits::.cpu.data           57                       # number of StoreCondReq hits
system.cpu.dcache.StoreCondReq_hits::total           57                       # number of StoreCondReq hits
system.cpu.dcache.StoreCondReq_accesses::.cpu.data           57                       # number of StoreCondReq accesses(hits+misses)
system.cpu.dcache.StoreCondReq_accesses::total           57                       # number of StoreCondReq accesses(hits+misses)
system.cpu.dcache.power_state.pwrStateResidencyTicks::UNDEFINED 205398491500                       # Cumulative time (in ticks) in various power states
system.cpu.dcache.tags.tagsinuse          4086.961977                       # Cycle average of tags in use
system.cpu.dcache.tags.total_refs           188403654                       # Total number of references to valid blocks.
system.cpu.dcache.tags.sampled_refs           3399356                       # Sample count of references to valid blocks.
system.cpu.dcache.tags.avg_refs             55.423337                       # Average number of references to valid blocks.
system.cpu.dcache.tags.warmup_cycle            176500                       # Cycle when the warmup percentage was hit.
system.cpu.dcache.tags.occ_blocks::.cpu.data  4086.961977                       # Average occupied blocks per requestor
system.cpu.dcache.tags.occ_percent::.cpu.data     0.997793                       # Average percentage of cache occupancy
system.cpu.dcache.tags.occ_percent::total     0.997793                       # Average percentage of cache occupancy
system.cpu.dcache.tags.occ_task_id_blocks::1024         4096                       # Occupied blocks per task id
system.cpu.dcache.tags.age_task_id_blocks_1024::0          115                       # Occupied blocks per task id
system.cpu.dcache.tags.age_task_id_blocks_1024::1         1006                       # Occupied blocks per task id
system.cpu.dcache.tags.age_task_id_blocks_1024::2         2605                       # Occupied blocks per task id
system.cpu.dcache.tags.age_task_id_blocks_1024::3          370                       # Occupied blocks per task id
system.cpu.dcache.tags.occ_task_id_percent::1024            1                       # Percentage of cache occupancy per task id
system.cpu.dcache.tags.tag_accesses        1548594708                       # Number of tag accesses
system.cpu.dcache.tags.data_accesses       1548594708                       # Number of data accesses
system.cpu.dcache.tags.power_state.pwrStateResidencyTicks::UNDEFINED 205398491500                       # Cumulative time (in ticks) in various power states
system.cpu.power_state.pwrStateResidencyTicks::ON 205398491500                       # Cumulative time (in ticks) in various power states

---------- End Simulation Statistics   ----------
