
---------- Begin Simulation Statistics ----------
final_tick                               739004849000                       # Number of ticks from beginning of simulation (restored from checkpoints and never reset)
host_inst_rate                                 572310                       # Simulator instruction rate (inst/s)
host_mem_usage                                 855412                       # Number of bytes of host memory used
host_op_rate                                   632661                       # Simulator op (including micro ops) rate (op/s)
host_seconds                                  2752.01                       # Real time elapsed on the host
host_tick_rate                               46473729                       # Simulator tick rate (ticks/s)
sim_freq                                 1000000000000                       # Frequency of simulated ticks
sim_insts                                  1575000003                       # Number of instructions simulated
sim_ops                                    1741087481                       # Number of ops (including micro ops) simulated
sim_seconds                                  0.127896                       # Number of seconds simulated
sim_ticks                                127896040500                       # Number of ticks simulated
system.cpu.committedInsts                           0                       # Number of instructions committed
system.cpu.committedOps                             0                       # Number of ops (including micro ops) committed
system.cpu.dtb.accesses                             0                       # DTB accesses
system.cpu.dtb.align_faults                         0                       # Number of TLB faults due to alignment restrictions
system.cpu.dtb.domain_faults                        0                       # Number of TLB faults due to domain restrictions
system.cpu.dtb.flush_entries                        0                       # Number of entries that have been flushed from TLB
system.cpu.dtb.flush_tlb                            0                       # Number of times complete TLB was flushed
system.cpu.dtb.flush_tlb_asid                       0                       # Number of times TLB was flushed by ASID
system.cpu.dtb.flush_tlb_mva                        0                       # Number of times TLB was flushed by MVA
system.cpu.dtb.flush_tlb_mva_asid                   0                       # Number of times TLB was flushed by MVA & ASID
system.cpu.dtb.hits                                 0                       # DTB hits
system.cpu.dtb.inst_accesses                        0                       # ITB inst accesses
system.cpu.dtb.inst_hits                            0                       # ITB inst hits
system.cpu.dtb.inst_misses                          0                       # ITB inst misses
system.cpu.dtb.misses                               0                       # DTB misses
system.cpu.dtb.perms_faults                         0                       # Number of TLB faults due to permissions restrictions
system.cpu.dtb.prefetch_faults                      0                       # Number of TLB faults due to prefetch
system.cpu.dtb.read_accesses                        0                       # DTB read accesses
system.cpu.dtb.read_hits                            0                       # DTB read hits
system.cpu.dtb.read_misses                          0                       # DTB read misses
system.cpu.dtb.stage2_mmu.stage2_tlb.accesses            0                       # DTB accesses
system.cpu.dtb.stage2_mmu.stage2_tlb.align_faults            0                       # Number of TLB faults due to alignment restrictions
system.cpu.dtb.stage2_mmu.stage2_tlb.domain_faults            0                       # Number of TLB faults due to domain restrictions
system.cpu.dtb.stage2_mmu.stage2_tlb.flush_entries            0                       # Number of entries that have been flushed from TLB
system.cpu.dtb.stage2_mmu.stage2_tlb.flush_tlb            0                       # Number of times complete TLB was flushed
system.cpu.dtb.stage2_mmu.stage2_tlb.flush_tlb_asid            0                       # Number of times TLB was flushed by ASID
system.cpu.dtb.stage2_mmu.stage2_tlb.flush_tlb_mva            0                       # Number of times TLB was flushed by MVA
system.cpu.dtb.stage2_mmu.stage2_tlb.flush_tlb_mva_asid            0                       # Number of times TLB was flushed by MVA & ASID
system.cpu.dtb.stage2_mmu.stage2_tlb.hits            0                       # DTB hits
system.cpu.dtb.stage2_mmu.stage2_tlb.inst_accesses            0                       # ITB inst accesses
system.cpu.dtb.stage2_mmu.stage2_tlb.inst_hits            0                       # ITB inst hits
system.cpu.dtb.stage2_mmu.stage2_tlb.inst_misses            0                       # ITB inst misses
system.cpu.dtb.stage2_mmu.stage2_tlb.misses            0                       # DTB misses
system.cpu.dtb.stage2_mmu.stage2_tlb.perms_faults            0                       # Number of TLB faults due to permissions restrictions
system.cpu.dtb.stage2_mmu.stage2_tlb.prefetch_faults            0                       # Number of TLB faults due to prefetch
system.cpu.dtb.stage2_mmu.stage2_tlb.read_accesses            0                       # DTB read accesses
system.cpu.dtb.stage2_mmu.stage2_tlb.read_hits            0                       # DTB read hits
system.cpu.dtb.stage2_mmu.stage2_tlb.read_misses            0                       # DTB read misses
system.cpu.dtb.stage2_mmu.stage2_tlb.walker.walkRequestOrigin_Requested::Data            0                       # Table walker requests started/completed, data/inst
system.cpu.dtb.stage2_mmu.stage2_tlb.walker.walkRequestOrigin_Requested::Inst            0                       # Table walker requests started/completed, data/inst
system.cpu.dtb.stage2_mmu.stage2_tlb.walker.walkRequestOrigin_Requested::total            0                       # Table walker requests started/completed, data/inst
system.cpu.dtb.stage2_mmu.stage2_tlb.walker.walkRequestOrigin_Completed::Data            0                       # Table walker requests started/completed, data/inst
system.cpu.dtb.stage2_mmu.stage2_tlb.walker.walkRequestOrigin_Completed::Inst            0                       # Table walker requests started/completed, data/inst
system.cpu.dtb.stage2_mmu.stage2_tlb.walker.walkRequestOrigin_Completed::total            0                       # Table walker requests started/completed, data/inst
system.cpu.dtb.stage2_mmu.stage2_tlb.walker.walkRequestOrigin::total            0                       # Table walker requests started/completed, data/inst
system.cpu.dtb.stage2_mmu.stage2_tlb.walker.walks            0                       # Table walker walks requested
system.cpu.dtb.stage2_mmu.stage2_tlb.write_accesses            0                       # DTB write accesses
system.cpu.dtb.stage2_mmu.stage2_tlb.write_hits            0                       # DTB write hits
system.cpu.dtb.stage2_mmu.stage2_tlb.write_misses            0                       # DTB write misses
system.cpu.dtb.walker.walkRequestOrigin_Requested::Data            0                       # Table walker requests started/completed, data/inst
system.cpu.dtb.walker.walkRequestOrigin_Requested::Inst            0                       # Table walker requests started/completed, data/inst
system.cpu.dtb.walker.walkRequestOrigin_Requested::total            0                       # Table walker requests started/completed, data/inst
system.cpu.dtb.walker.walkRequestOrigin_Completed::Data            0                       # Table walker requests started/completed, data/inst
system.cpu.dtb.walker.walkRequestOrigin_Completed::Inst            0                       # Table walker requests started/completed, data/inst
system.cpu.dtb.walker.walkRequestOrigin_Completed::total            0                       # Table walker requests started/completed, data/inst
system.cpu.dtb.walker.walkRequestOrigin::total            0                       # Table walker requests started/completed, data/inst
system.cpu.dtb.walker.walks                         0                       # Table walker walks requested
system.cpu.dtb.write_accesses                       0                       # DTB write accesses
system.cpu.dtb.write_hits                           0                       # DTB write hits
system.cpu.dtb.write_misses                         0                       # DTB write misses
system.cpu.idle_fraction                            0                       # Percentage of idle cycles
system.cpu.itb.accesses                             0                       # DTB accesses
system.cpu.itb.align_faults                         0                       # Number of TLB faults due to alignment restrictions
system.cpu.itb.domain_faults                        0                       # Number of TLB faults due to domain restrictions
system.cpu.itb.flush_entries                        0                       # Number of entries that have been flushed from TLB
system.cpu.itb.flush_tlb                            0                       # Number of times complete TLB was flushed
system.cpu.itb.flush_tlb_asid                       0                       # Number of times TLB was flushed by ASID
system.cpu.itb.flush_tlb_mva                        0                       # Number of times TLB was flushed by MVA
system.cpu.itb.flush_tlb_mva_asid                   0                       # Number of times TLB was flushed by MVA & ASID
system.cpu.itb.hits                                 0                       # DTB hits
system.cpu.itb.inst_accesses                        0                       # ITB inst accesses
system.cpu.itb.inst_hits                            0                       # ITB inst hits
system.cpu.itb.inst_misses                          0                       # ITB inst misses
system.cpu.itb.misses                               0                       # DTB misses
system.cpu.itb.perms_faults                         0                       # Number of TLB faults due to permissions restrictions
system.cpu.itb.prefetch_faults                      0                       # Number of TLB faults due to prefetch
system.cpu.itb.read_accesses                        0                       # DTB read accesses
system.cpu.itb.read_hits                            0                       # DTB read hits
system.cpu.itb.read_misses                          0                       # DTB read misses
system.cpu.itb.stage2_mmu.stage2_tlb.accesses            0                       # DTB accesses
system.cpu.itb.stage2_mmu.stage2_tlb.align_faults            0                       # Number of TLB faults due to alignment restrictions
system.cpu.itb.stage2_mmu.stage2_tlb.domain_faults            0                       # Number of TLB faults due to domain restrictions
system.cpu.itb.stage2_mmu.stage2_tlb.flush_entries            0                       # Number of entries that have been flushed from TLB
system.cpu.itb.stage2_mmu.stage2_tlb.flush_tlb            0                       # Number of times complete TLB was flushed
system.cpu.itb.stage2_mmu.stage2_tlb.flush_tlb_asid            0                       # Number of times TLB was flushed by ASID
system.cpu.itb.stage2_mmu.stage2_tlb.flush_tlb_mva            0                       # Number of times TLB was flushed by MVA
system.cpu.itb.stage2_mmu.stage2_tlb.flush_tlb_mva_asid            0                       # Number of times TLB was flushed by MVA & ASID
system.cpu.itb.stage2_mmu.stage2_tlb.hits            0                       # DTB hits
system.cpu.itb.stage2_mmu.stage2_tlb.inst_accesses            0                       # ITB inst accesses
system.cpu.itb.stage2_mmu.stage2_tlb.inst_hits            0                       # ITB inst hits
system.cpu.itb.stage2_mmu.stage2_tlb.inst_misses            0                       # ITB inst misses
system.cpu.itb.stage2_mmu.stage2_tlb.misses            0                       # DTB misses
system.cpu.itb.stage2_mmu.stage2_tlb.perms_faults            0                       # Number of TLB faults due to permissions restrictions
system.cpu.itb.stage2_mmu.stage2_tlb.prefetch_faults            0                       # Number of TLB faults due to prefetch
system.cpu.itb.stage2_mmu.stage2_tlb.read_accesses            0                       # DTB read accesses
system.cpu.itb.stage2_mmu.stage2_tlb.read_hits            0                       # DTB read hits
system.cpu.itb.stage2_mmu.stage2_tlb.read_misses            0                       # DTB read misses
system.cpu.itb.stage2_mmu.stage2_tlb.walker.walkRequestOrigin_Requested::Data            0                       # Table walker requests started/completed, data/inst
system.cpu.itb.stage2_mmu.stage2_tlb.walker.walkRequestOrigin_Requested::Inst            0                       # Table walker requests started/completed, data/inst
system.cpu.itb.stage2_mmu.stage2_tlb.walker.walkRequestOrigin_Requested::total            0                       # Table walker requests started/completed, data/inst
system.cpu.itb.stage2_mmu.stage2_tlb.walker.walkRequestOrigin_Completed::Data            0                       # Table walker requests started/completed, data/inst
system.cpu.itb.stage2_mmu.stage2_tlb.walker.walkRequestOrigin_Completed::Inst            0                       # Table walker requests started/completed, data/inst
system.cpu.itb.stage2_mmu.stage2_tlb.walker.walkRequestOrigin_Completed::total            0                       # Table walker requests started/completed, data/inst
system.cpu.itb.stage2_mmu.stage2_tlb.walker.walkRequestOrigin::total            0                       # Table walker requests started/completed, data/inst
system.cpu.itb.stage2_mmu.stage2_tlb.walker.walks            0                       # Table walker walks requested
system.cpu.itb.stage2_mmu.stage2_tlb.write_accesses            0                       # DTB write accesses
system.cpu.itb.stage2_mmu.stage2_tlb.write_hits            0                       # DTB write hits
system.cpu.itb.stage2_mmu.stage2_tlb.write_misses            0                       # DTB write misses
system.cpu.itb.walker.walkRequestOrigin_Requested::Data            0                       # Table walker requests started/completed, data/inst
system.cpu.itb.walker.walkRequestOrigin_Requested::Inst            0                       # Table walker requests started/completed, data/inst
system.cpu.itb.walker.walkRequestOrigin_Requested::total            0                       # Table walker requests started/completed, data/inst
system.cpu.itb.walker.walkRequestOrigin_Completed::Data            0                       # Table walker requests started/completed, data/inst
system.cpu.itb.walker.walkRequestOrigin_Completed::Inst            0                       # Table walker requests started/completed, data/inst
system.cpu.itb.walker.walkRequestOrigin_Completed::total            0                       # Table walker requests started/completed, data/inst
system.cpu.itb.walker.walkRequestOrigin::total            0                       # Table walker requests started/completed, data/inst
system.cpu.itb.walker.walks                         0                       # Table walker walks requested
system.cpu.itb.write_accesses                       0                       # DTB write accesses
system.cpu.itb.write_hits                           0                       # DTB write hits
system.cpu.itb.write_misses                         0                       # DTB write misses
system.cpu.not_idle_fraction                        1                       # Percentage of non-idle cycles
system.cpu.numCycles                                0                       # number of cpu cycles simulated
system.cpu.numWorkItemsCompleted                    0                       # number of work items this cpu completed
system.cpu.numWorkItemsStarted                      0                       # number of work items this cpu started
system.cpu.num_busy_cycles                          0                       # Number of busy cycles
system.cpu.num_conditional_control_insts            0                       # number of instructions that are conditional controls
system.cpu.num_fp_alu_accesses                      0                       # Number of float alu accesses
system.cpu.num_fp_insts                             0                       # number of float instructions
system.cpu.num_fp_register_reads                    0                       # number of times the floating registers were read
system.cpu.num_fp_register_writes                   0                       # number of times the floating registers were written
system.cpu.num_func_calls                           0                       # number of times a function call or return occured
system.cpu.num_idle_cycles                          0                       # Number of idle cycles
system.cpu.num_int_alu_accesses                     0                       # Number of integer alu accesses
system.cpu.num_int_insts                            0                       # number of integer instructions
system.cpu.num_int_register_reads                   0                       # number of times the integer registers were read
system.cpu.num_int_register_writes                  0                       # number of times the integer registers were written
system.cpu.num_load_insts                           0                       # Number of load instructions
system.cpu.num_mem_refs                             0                       # number of memory refs
system.cpu.num_store_insts                          0                       # Number of store instructions
system.cpu.num_vec_alu_accesses                     0                       # Number of vector alu accesses
system.cpu.num_vec_insts                            0                       # number of vector instructions
system.cpu.num_vec_register_reads                   0                       # number of times the vector registers were read
system.cpu.num_vec_register_writes                  0                       # number of times the vector registers were written
system.cpu.op_class::No_OpClass                     0                       # Class of executed instruction
system.cpu.op_class::IntAlu                         0                       # Class of executed instruction
system.cpu.op_class::IntMult                        0                       # Class of executed instruction
system.cpu.op_class::IntDiv                         0                       # Class of executed instruction
system.cpu.op_class::FloatAdd                       0                       # Class of executed instruction
system.cpu.op_class::FloatCmp                       0                       # Class of executed instruction
system.cpu.op_class::FloatCvt                       0                       # Class of executed instruction
system.cpu.op_class::FloatMult                      0                       # Class of executed instruction
system.cpu.op_class::FloatMultAcc                   0                       # Class of executed instruction
system.cpu.op_class::FloatDiv                       0                       # Class of executed instruction
system.cpu.op_class::FloatMisc                      0                       # Class of executed instruction
system.cpu.op_class::FloatSqrt                      0                       # Class of executed instruction
system.cpu.op_class::SimdAdd                        0                       # Class of executed instruction
system.cpu.op_class::SimdAddAcc                     0                       # Class of executed instruction
system.cpu.op_class::SimdAlu                        0                       # Class of executed instruction
system.cpu.op_class::SimdCmp                        0                       # Class of executed instruction
system.cpu.op_class::SimdCvt                        0                       # Class of executed instruction
system.cpu.op_class::SimdMisc                       0                       # Class of executed instruction
system.cpu.op_class::SimdMult                       0                       # Class of executed instruction
system.cpu.op_class::SimdMultAcc                    0                       # Class of executed instruction
system.cpu.op_class::SimdShift                      0                       # Class of executed instruction
system.cpu.op_class::SimdShiftAcc                   0                       # Class of executed instruction
system.cpu.op_class::SimdDiv                        0                       # Class of executed instruction
system.cpu.op_class::SimdSqrt                       0                       # Class of executed instruction
system.cpu.op_class::SimdFloatAdd                   0                       # Class of executed instruction
system.cpu.op_class::SimdFloatAlu                   0                       # Class of executed instruction
system.cpu.op_class::SimdFloatCmp                   0                       # Class of executed instruction
system.cpu.op_class::SimdFloatCvt                   0                       # Class of executed instruction
system.cpu.op_class::SimdFloatDiv                   0                       # Class of executed instruction
system.cpu.op_class::SimdFloatMisc                  0                       # Class of executed instruction
system.cpu.op_class::SimdFloatMult                  0                       # Class of executed instruction
system.cpu.op_class::SimdFloatMultAcc               0                       # Class of executed instruction
system.cpu.op_class::SimdFloatSqrt                  0                       # Class of executed instruction
system.cpu.op_class::SimdReduceAdd                  0                       # Class of executed instruction
system.cpu.op_class::SimdReduceAlu                  0                       # Class of executed instruction
system.cpu.op_class::SimdReduceCmp                  0                       # Class of executed instruction
system.cpu.op_class::SimdFloatReduceAdd             0                       # Class of executed instruction
system.cpu.op_class::SimdFloatReduceCmp             0                       # Class of executed instruction
system.cpu.op_class::SimdAes                        0                       # Class of executed instruction
system.cpu.op_class::SimdAesMix                     0                       # Class of executed instruction
system.cpu.op_class::SimdSha1Hash                   0                       # Class of executed instruction
system.cpu.op_class::SimdSha1Hash2                  0                       # Class of executed instruction
system.cpu.op_class::SimdSha256Hash                 0                       # Class of executed instruction
system.cpu.op_class::SimdSha256Hash2                0                       # Class of executed instruction
system.cpu.op_class::SimdShaSigma2                  0                       # Class of executed instruction
system.cpu.op_class::SimdShaSigma3                  0                       # Class of executed instruction
system.cpu.op_class::SimdPredAlu                    0                       # Class of executed instruction
system.cpu.op_class::MemRead                        0                       # Class of executed instruction
system.cpu.op_class::MemWrite                       0                       # Class of executed instruction
system.cpu.op_class::FloatMemRead                   0                       # Class of executed instruction
system.cpu.op_class::FloatMemWrite                  0                       # Class of executed instruction
system.cpu.op_class::IprAccess                      0                       # Class of executed instruction
system.cpu.op_class::InstPrefetch                   0                       # Class of executed instruction
system.cpu.op_class::total                          0                       # Class of executed instruction
system.cpu.workload.numSyscalls                   201                       # Number of system calls
system.membus.snoop_filter.hit_multi_requests            0                       # Number of requests hitting in the snoop filter with multiple (>1) holders of the requested data.
system.membus.snoop_filter.hit_multi_snoops            0                       # Number of snoops hitting in the snoop filter with multiple (>1) holders of the requested data.
system.membus.snoop_filter.hit_single_requests       611801                       # Number of requests hitting in the snoop filter with a single holder of the requested data.
system.membus.snoop_filter.hit_single_snoops            0                       # Number of snoops hitting in the snoop filter with a single holder of the requested data.
system.membus.snoop_filter.tot_requests       1224220                       # Total number of requests made to the snoop filter.
system.membus.snoop_filter.tot_snoops               0                       # Total number of snoops made to the snoop filter.
system.switch_cpus.committedInsts                   0                       # Number of instructions committed
system.switch_cpus.committedOps                     0                       # Number of ops (including micro ops) committed
system.switch_cpus.dtb.accesses                     0                       # DTB accesses
system.switch_cpus.dtb.align_faults                 0                       # Number of TLB faults due to alignment restrictions
system.switch_cpus.dtb.domain_faults                0                       # Number of TLB faults due to domain restrictions
system.switch_cpus.dtb.flush_entries                0                       # Number of entries that have been flushed from TLB
system.switch_cpus.dtb.flush_tlb                    0                       # Number of times complete TLB was flushed
system.switch_cpus.dtb.flush_tlb_asid               0                       # Number of times TLB was flushed by ASID
system.switch_cpus.dtb.flush_tlb_mva                0                       # Number of times TLB was flushed by MVA
system.switch_cpus.dtb.flush_tlb_mva_asid            0                       # Number of times TLB was flushed by MVA & ASID
system.switch_cpus.dtb.hits                         0                       # DTB hits
system.switch_cpus.dtb.inst_accesses                0                       # ITB inst accesses
system.switch_cpus.dtb.inst_hits                    0                       # ITB inst hits
system.switch_cpus.dtb.inst_misses                  0                       # ITB inst misses
system.switch_cpus.dtb.misses                       0                       # DTB misses
system.switch_cpus.dtb.perms_faults                 0                       # Number of TLB faults due to permissions restrictions
system.switch_cpus.dtb.prefetch_faults              0                       # Number of TLB faults due to prefetch
system.switch_cpus.dtb.read_accesses                0                       # DTB read accesses
system.switch_cpus.dtb.read_hits                    0                       # DTB read hits
system.switch_cpus.dtb.read_misses                  0                       # DTB read misses
system.switch_cpus.dtb.stage2_mmu.stage2_tlb.accesses            0                       # DTB accesses
system.switch_cpus.dtb.stage2_mmu.stage2_tlb.align_faults            0                       # Number of TLB faults due to alignment restrictions
system.switch_cpus.dtb.stage2_mmu.stage2_tlb.domain_faults            0                       # Number of TLB faults due to domain restrictions
system.switch_cpus.dtb.stage2_mmu.stage2_tlb.flush_entries            0                       # Number of entries that have been flushed from TLB
system.switch_cpus.dtb.stage2_mmu.stage2_tlb.flush_tlb            0                       # Number of times complete TLB was flushed
system.switch_cpus.dtb.stage2_mmu.stage2_tlb.flush_tlb_asid            0                       # Number of times TLB was flushed by ASID
system.switch_cpus.dtb.stage2_mmu.stage2_tlb.flush_tlb_mva            0                       # Number of times TLB was flushed by MVA
system.switch_cpus.dtb.stage2_mmu.stage2_tlb.flush_tlb_mva_asid            0                       # Number of times TLB was flushed by MVA & ASID
system.switch_cpus.dtb.stage2_mmu.stage2_tlb.hits            0                       # DTB hits
system.switch_cpus.dtb.stage2_mmu.stage2_tlb.inst_accesses            0                       # ITB inst accesses
system.switch_cpus.dtb.stage2_mmu.stage2_tlb.inst_hits            0                       # ITB inst hits
system.switch_cpus.dtb.stage2_mmu.stage2_tlb.inst_misses            0                       # ITB inst misses
system.switch_cpus.dtb.stage2_mmu.stage2_tlb.misses            0                       # DTB misses
system.switch_cpus.dtb.stage2_mmu.stage2_tlb.perms_faults            0                       # Number of TLB faults due to permissions restrictions
system.switch_cpus.dtb.stage2_mmu.stage2_tlb.prefetch_faults            0                       # Number of TLB faults due to prefetch
system.switch_cpus.dtb.stage2_mmu.stage2_tlb.read_accesses            0                       # DTB read accesses
system.switch_cpus.dtb.stage2_mmu.stage2_tlb.read_hits            0                       # DTB read hits
system.switch_cpus.dtb.stage2_mmu.stage2_tlb.read_misses            0                       # DTB read misses
system.switch_cpus.dtb.stage2_mmu.stage2_tlb.walker.walkRequestOrigin_Requested::Data            0                       # Table walker requests started/completed, data/inst
system.switch_cpus.dtb.stage2_mmu.stage2_tlb.walker.walkRequestOrigin_Requested::Inst            0                       # Table walker requests started/completed, data/inst
system.switch_cpus.dtb.stage2_mmu.stage2_tlb.walker.walkRequestOrigin_Requested::total            0                       # Table walker requests started/completed, data/inst
system.switch_cpus.dtb.stage2_mmu.stage2_tlb.walker.walkRequestOrigin_Completed::Data            0                       # Table walker requests started/completed, data/inst
system.switch_cpus.dtb.stage2_mmu.stage2_tlb.walker.walkRequestOrigin_Completed::Inst            0                       # Table walker requests started/completed, data/inst
system.switch_cpus.dtb.stage2_mmu.stage2_tlb.walker.walkRequestOrigin_Completed::total            0                       # Table walker requests started/completed, data/inst
system.switch_cpus.dtb.stage2_mmu.stage2_tlb.walker.walkRequestOrigin::total            0                       # Table walker requests started/completed, data/inst
system.switch_cpus.dtb.stage2_mmu.stage2_tlb.walker.walks            0                       # Table walker walks requested
system.switch_cpus.dtb.stage2_mmu.stage2_tlb.write_accesses            0                       # DTB write accesses
system.switch_cpus.dtb.stage2_mmu.stage2_tlb.write_hits            0                       # DTB write hits
system.switch_cpus.dtb.stage2_mmu.stage2_tlb.write_misses            0                       # DTB write misses
system.switch_cpus.dtb.walker.walkRequestOrigin_Requested::Data            0                       # Table walker requests started/completed, data/inst
system.switch_cpus.dtb.walker.walkRequestOrigin_Requested::Inst            0                       # Table walker requests started/completed, data/inst
system.switch_cpus.dtb.walker.walkRequestOrigin_Requested::total            0                       # Table walker requests started/completed, data/inst
system.switch_cpus.dtb.walker.walkRequestOrigin_Completed::Data            0                       # Table walker requests started/completed, data/inst
system.switch_cpus.dtb.walker.walkRequestOrigin_Completed::Inst            0                       # Table walker requests started/completed, data/inst
system.switch_cpus.dtb.walker.walkRequestOrigin_Completed::total            0                       # Table walker requests started/completed, data/inst
system.switch_cpus.dtb.walker.walkRequestOrigin::total            0                       # Table walker requests started/completed, data/inst
system.switch_cpus.dtb.walker.walks                 0                       # Table walker walks requested
system.switch_cpus.dtb.write_accesses               0                       # DTB write accesses
system.switch_cpus.dtb.write_hits                   0                       # DTB write hits
system.switch_cpus.dtb.write_misses                 0                       # DTB write misses
system.switch_cpus.idle_fraction                    0                       # Percentage of idle cycles
system.switch_cpus.itb.accesses                     0                       # DTB accesses
system.switch_cpus.itb.align_faults                 0                       # Number of TLB faults due to alignment restrictions
system.switch_cpus.itb.domain_faults                0                       # Number of TLB faults due to domain restrictions
system.switch_cpus.itb.flush_entries                0                       # Number of entries that have been flushed from TLB
system.switch_cpus.itb.flush_tlb                    0                       # Number of times complete TLB was flushed
system.switch_cpus.itb.flush_tlb_asid               0                       # Number of times TLB was flushed by ASID
system.switch_cpus.itb.flush_tlb_mva                0                       # Number of times TLB was flushed by MVA
system.switch_cpus.itb.flush_tlb_mva_asid            0                       # Number of times TLB was flushed by MVA & ASID
system.switch_cpus.itb.hits                         0                       # DTB hits
system.switch_cpus.itb.inst_accesses                0                       # ITB inst accesses
system.switch_cpus.itb.inst_hits                    0                       # ITB inst hits
system.switch_cpus.itb.inst_misses                  0                       # ITB inst misses
system.switch_cpus.itb.misses                       0                       # DTB misses
system.switch_cpus.itb.perms_faults                 0                       # Number of TLB faults due to permissions restrictions
system.switch_cpus.itb.prefetch_faults              0                       # Number of TLB faults due to prefetch
system.switch_cpus.itb.read_accesses                0                       # DTB read accesses
system.switch_cpus.itb.read_hits                    0                       # DTB read hits
system.switch_cpus.itb.read_misses                  0                       # DTB read misses
system.switch_cpus.itb.stage2_mmu.stage2_tlb.accesses            0                       # DTB accesses
system.switch_cpus.itb.stage2_mmu.stage2_tlb.align_faults            0                       # Number of TLB faults due to alignment restrictions
system.switch_cpus.itb.stage2_mmu.stage2_tlb.domain_faults            0                       # Number of TLB faults due to domain restrictions
system.switch_cpus.itb.stage2_mmu.stage2_tlb.flush_entries            0                       # Number of entries that have been flushed from TLB
system.switch_cpus.itb.stage2_mmu.stage2_tlb.flush_tlb            0                       # Number of times complete TLB was flushed
system.switch_cpus.itb.stage2_mmu.stage2_tlb.flush_tlb_asid            0                       # Number of times TLB was flushed by ASID
system.switch_cpus.itb.stage2_mmu.stage2_tlb.flush_tlb_mva            0                       # Number of times TLB was flushed by MVA
system.switch_cpus.itb.stage2_mmu.stage2_tlb.flush_tlb_mva_asid            0                       # Number of times TLB was flushed by MVA & ASID
system.switch_cpus.itb.stage2_mmu.stage2_tlb.hits            0                       # DTB hits
system.switch_cpus.itb.stage2_mmu.stage2_tlb.inst_accesses            0                       # ITB inst accesses
system.switch_cpus.itb.stage2_mmu.stage2_tlb.inst_hits            0                       # ITB inst hits
system.switch_cpus.itb.stage2_mmu.stage2_tlb.inst_misses            0                       # ITB inst misses
system.switch_cpus.itb.stage2_mmu.stage2_tlb.misses            0                       # DTB misses
system.switch_cpus.itb.stage2_mmu.stage2_tlb.perms_faults            0                       # Number of TLB faults due to permissions restrictions
system.switch_cpus.itb.stage2_mmu.stage2_tlb.prefetch_faults            0                       # Number of TLB faults due to prefetch
system.switch_cpus.itb.stage2_mmu.stage2_tlb.read_accesses            0                       # DTB read accesses
system.switch_cpus.itb.stage2_mmu.stage2_tlb.read_hits            0                       # DTB read hits
system.switch_cpus.itb.stage2_mmu.stage2_tlb.read_misses            0                       # DTB read misses
system.switch_cpus.itb.stage2_mmu.stage2_tlb.walker.walkRequestOrigin_Requested::Data            0                       # Table walker requests started/completed, data/inst
system.switch_cpus.itb.stage2_mmu.stage2_tlb.walker.walkRequestOrigin_Requested::Inst            0                       # Table walker requests started/completed, data/inst
system.switch_cpus.itb.stage2_mmu.stage2_tlb.walker.walkRequestOrigin_Requested::total            0                       # Table walker requests started/completed, data/inst
system.switch_cpus.itb.stage2_mmu.stage2_tlb.walker.walkRequestOrigin_Completed::Data            0                       # Table walker requests started/completed, data/inst
system.switch_cpus.itb.stage2_mmu.stage2_tlb.walker.walkRequestOrigin_Completed::Inst            0                       # Table walker requests started/completed, data/inst
system.switch_cpus.itb.stage2_mmu.stage2_tlb.walker.walkRequestOrigin_Completed::total            0                       # Table walker requests started/completed, data/inst
system.switch_cpus.itb.stage2_mmu.stage2_tlb.walker.walkRequestOrigin::total            0                       # Table walker requests started/completed, data/inst
system.switch_cpus.itb.stage2_mmu.stage2_tlb.walker.walks            0                       # Table walker walks requested
system.switch_cpus.itb.stage2_mmu.stage2_tlb.write_accesses            0                       # DTB write accesses
system.switch_cpus.itb.stage2_mmu.stage2_tlb.write_hits            0                       # DTB write hits
system.switch_cpus.itb.stage2_mmu.stage2_tlb.write_misses            0                       # DTB write misses
system.switch_cpus.itb.walker.walkRequestOrigin_Requested::Data            0                       # Table walker requests started/completed, data/inst
system.switch_cpus.itb.walker.walkRequestOrigin_Requested::Inst            0                       # Table walker requests started/completed, data/inst
system.switch_cpus.itb.walker.walkRequestOrigin_Requested::total            0                       # Table walker requests started/completed, data/inst
system.switch_cpus.itb.walker.walkRequestOrigin_Completed::Data            0                       # Table walker requests started/completed, data/inst
system.switch_cpus.itb.walker.walkRequestOrigin_Completed::Inst            0                       # Table walker requests started/completed, data/inst
system.switch_cpus.itb.walker.walkRequestOrigin_Completed::total            0                       # Table walker requests started/completed, data/inst
system.switch_cpus.itb.walker.walkRequestOrigin::total            0                       # Table walker requests started/completed, data/inst
system.switch_cpus.itb.walker.walks                 0                       # Table walker walks requested
system.switch_cpus.itb.write_accesses               0                       # DTB write accesses
system.switch_cpus.itb.write_hits                   0                       # DTB write hits
system.switch_cpus.itb.write_misses                 0                       # DTB write misses
system.switch_cpus.not_idle_fraction                1                       # Percentage of non-idle cycles
system.switch_cpus.numCycles                        0                       # number of cpu cycles simulated
system.switch_cpus.numWorkItemsCompleted            0                       # number of work items this cpu completed
system.switch_cpus.numWorkItemsStarted              0                       # number of work items this cpu started
system.switch_cpus.num_busy_cycles                  0                       # Number of busy cycles
system.switch_cpus.num_conditional_control_insts            0                       # number of instructions that are conditional controls
system.switch_cpus.num_fp_alu_accesses              0                       # Number of float alu accesses
system.switch_cpus.num_fp_insts                     0                       # number of float instructions
system.switch_cpus.num_fp_register_reads            0                       # number of times the floating registers were read
system.switch_cpus.num_fp_register_writes            0                       # number of times the floating registers were written
system.switch_cpus.num_func_calls                   0                       # number of times a function call or return occured
system.switch_cpus.num_idle_cycles                  0                       # Number of idle cycles
system.switch_cpus.num_int_alu_accesses             0                       # Number of integer alu accesses
system.switch_cpus.num_int_insts                    0                       # number of integer instructions
system.switch_cpus.num_int_register_reads            0                       # number of times the integer registers were read
system.switch_cpus.num_int_register_writes            0                       # number of times the integer registers were written
system.switch_cpus.num_load_insts                   0                       # Number of load instructions
system.switch_cpus.num_mem_refs                     0                       # number of memory refs
system.switch_cpus.num_store_insts                  0                       # Number of store instructions
system.switch_cpus.num_vec_alu_accesses             0                       # Number of vector alu accesses
system.switch_cpus.num_vec_insts                    0                       # number of vector instructions
system.switch_cpus.num_vec_register_reads            0                       # number of times the vector registers were read
system.switch_cpus.num_vec_register_writes            0                       # number of times the vector registers were written
system.switch_cpus.op_class::No_OpClass             0                       # Class of executed instruction
system.switch_cpus.op_class::IntAlu                 0                       # Class of executed instruction
system.switch_cpus.op_class::IntMult                0                       # Class of executed instruction
system.switch_cpus.op_class::IntDiv                 0                       # Class of executed instruction
system.switch_cpus.op_class::FloatAdd               0                       # Class of executed instruction
system.switch_cpus.op_class::FloatCmp               0                       # Class of executed instruction
system.switch_cpus.op_class::FloatCvt               0                       # Class of executed instruction
system.switch_cpus.op_class::FloatMult              0                       # Class of executed instruction
system.switch_cpus.op_class::FloatMultAcc            0                       # Class of executed instruction
system.switch_cpus.op_class::FloatDiv               0                       # Class of executed instruction
system.switch_cpus.op_class::FloatMisc              0                       # Class of executed instruction
system.switch_cpus.op_class::FloatSqrt              0                       # Class of executed instruction
system.switch_cpus.op_class::SimdAdd                0                       # Class of executed instruction
system.switch_cpus.op_class::SimdAddAcc             0                       # Class of executed instruction
system.switch_cpus.op_class::SimdAlu                0                       # Class of executed instruction
system.switch_cpus.op_class::SimdCmp                0                       # Class of executed instruction
system.switch_cpus.op_class::SimdCvt                0                       # Class of executed instruction
system.switch_cpus.op_class::SimdMisc               0                       # Class of executed instruction
system.switch_cpus.op_class::SimdMult               0                       # Class of executed instruction
system.switch_cpus.op_class::SimdMultAcc            0                       # Class of executed instruction
system.switch_cpus.op_class::SimdShift              0                       # Class of executed instruction
system.switch_cpus.op_class::SimdShiftAcc            0                       # Class of executed instruction
system.switch_cpus.op_class::SimdDiv                0                       # Class of executed instruction
system.switch_cpus.op_class::SimdSqrt               0                       # Class of executed instruction
system.switch_cpus.op_class::SimdFloatAdd            0                       # Class of executed instruction
system.switch_cpus.op_class::SimdFloatAlu            0                       # Class of executed instruction
system.switch_cpus.op_class::SimdFloatCmp            0                       # Class of executed instruction
system.switch_cpus.op_class::SimdFloatCvt            0                       # Class of executed instruction
system.switch_cpus.op_class::SimdFloatDiv            0                       # Class of executed instruction
system.switch_cpus.op_class::SimdFloatMisc            0                       # Class of executed instruction
system.switch_cpus.op_class::SimdFloatMult            0                       # Class of executed instruction
system.switch_cpus.op_class::SimdFloatMultAcc            0                       # Class of executed instruction
system.switch_cpus.op_class::SimdFloatSqrt            0                       # Class of executed instruction
system.switch_cpus.op_class::SimdReduceAdd            0                       # Class of executed instruction
system.switch_cpus.op_class::SimdReduceAlu            0                       # Class of executed instruction
system.switch_cpus.op_class::SimdReduceCmp            0                       # Class of executed instruction
system.switch_cpus.op_class::SimdFloatReduceAdd            0                       # Class of executed instruction
system.switch_cpus.op_class::SimdFloatReduceCmp            0                       # Class of executed instruction
system.switch_cpus.op_class::SimdAes                0                       # Class of executed instruction
system.switch_cpus.op_class::SimdAesMix             0                       # Class of executed instruction
system.switch_cpus.op_class::SimdSha1Hash            0                       # Class of executed instruction
system.switch_cpus.op_class::SimdSha1Hash2            0                       # Class of executed instruction
system.switch_cpus.op_class::SimdSha256Hash            0                       # Class of executed instruction
system.switch_cpus.op_class::SimdSha256Hash2            0                       # Class of executed instruction
system.switch_cpus.op_class::SimdShaSigma2            0                       # Class of executed instruction
system.switch_cpus.op_class::SimdShaSigma3            0                       # Class of executed instruction
system.switch_cpus.op_class::SimdPredAlu            0                       # Class of executed instruction
system.switch_cpus.op_class::MemRead                0                       # Class of executed instruction
system.switch_cpus.op_class::MemWrite               0                       # Class of executed instruction
system.switch_cpus.op_class::FloatMemRead            0                       # Class of executed instruction
system.switch_cpus.op_class::FloatMemWrite            0                       # Class of executed instruction
system.switch_cpus.op_class::IprAccess              0                       # Class of executed instruction
system.switch_cpus.op_class::InstPrefetch            0                       # Class of executed instruction
system.switch_cpus.op_class::total                  0                       # Class of executed instruction
system.switch_cpus_1.branchPred.BTBCorrect            0                       # Number of correct BTB predictions (this stat may not work properly.
system.switch_cpus_1.branchPred.BTBHitPct    99.977777                       # BTB Hit Percentage
system.switch_cpus_1.branchPred.BTBHits      38177364                       # Number of BTB hits
system.switch_cpus_1.branchPred.BTBLookups     38185850                       # Number of BTB lookups
system.switch_cpus_1.branchPred.RASInCorrect            8                       # Number of incorrect RAS predictions.
system.switch_cpus_1.branchPred.condIncorrect       935490                       # Number of conditional branches incorrect
system.switch_cpus_1.branchPred.condPredicted     63297357                       # Number of conditional branches predicted
system.switch_cpus_1.branchPred.indirectHits       638363                       # Number of indirect target hits.
system.switch_cpus_1.branchPred.indirectLookups       641634                       # Number of indirect predictor lookups.
system.switch_cpus_1.branchPred.indirectMisses         3271                       # Number of indirect misses.
system.switch_cpus_1.branchPred.lookups      73980185                       # Number of BP lookups
system.switch_cpus_1.branchPred.usedRAS       2116043                       # Number of times the RAS was used to get a target.
system.switch_cpus_1.branchPredindirectMispredicted        54801                       # Number of mispredicted indirect branches.
system.switch_cpus_1.cc_regfile_reads       147005832                       # number of cc regfile reads
system.switch_cpus_1.cc_regfile_writes      151282992                       # number of cc regfile writes
system.switch_cpus_1.commit.amos                    0                       # Number of atomic instructions committed
system.switch_cpus_1.commit.branchMispredicts       934963                       # The number of times a branch was mispredicted
system.switch_cpus_1.commit.branches         59790787                       # Number of branches committed
system.switch_cpus_1.commit.bw_lim_events     32422714                       # number cycles where commit BW limit reached
system.switch_cpus_1.commit.commitNonSpecStalls        52314                       # The number of times commit has been forced to stall to communicate backwards
system.switch_cpus_1.commit.commitSquashedInsts     59459146                       # The number of squashed insts skipped by commit
system.switch_cpus_1.commit.committedInsts    500336075                       # Number of instructions committed
system.switch_cpus_1.commit.committedOps    537411016                       # Number of ops (including micro ops) committed
system.switch_cpus_1.commit.committed_per_cycle::samples    247845307                       # Number of insts commited each cycle
system.switch_cpus_1.commit.committed_per_cycle::mean     2.168332                       # Number of insts commited each cycle
system.switch_cpus_1.commit.committed_per_cycle::stdev     2.844086                       # Number of insts commited each cycle
system.switch_cpus_1.commit.committed_per_cycle::underflows            0      0.00%      0.00% # Number of insts commited each cycle
system.switch_cpus_1.commit.committed_per_cycle::0    112581374     45.42%     45.42% # Number of insts commited each cycle
system.switch_cpus_1.commit.committed_per_cycle::1     35050429     14.14%     59.57% # Number of insts commited each cycle
system.switch_cpus_1.commit.committed_per_cycle::2     23309945      9.41%     68.97% # Number of insts commited each cycle
system.switch_cpus_1.commit.committed_per_cycle::3     19906645      8.03%     77.00% # Number of insts commited each cycle
system.switch_cpus_1.commit.committed_per_cycle::4      4986618      2.01%     79.02% # Number of insts commited each cycle
system.switch_cpus_1.commit.committed_per_cycle::5      6724507      2.71%     81.73% # Number of insts commited each cycle
system.switch_cpus_1.commit.committed_per_cycle::6      6971482      2.81%     84.54% # Number of insts commited each cycle
system.switch_cpus_1.commit.committed_per_cycle::7      5891593      2.38%     86.92% # Number of insts commited each cycle
system.switch_cpus_1.commit.committed_per_cycle::8     32422714     13.08%    100.00% # Number of insts commited each cycle
system.switch_cpus_1.commit.committed_per_cycle::overflows            0      0.00%    100.00% # Number of insts commited each cycle
system.switch_cpus_1.commit.committed_per_cycle::min_value            0                       # Number of insts commited each cycle
system.switch_cpus_1.commit.committed_per_cycle::max_value            8                       # Number of insts commited each cycle
system.switch_cpus_1.commit.committed_per_cycle::total    247845307                       # Number of insts commited each cycle
system.switch_cpus_1.commit.fp_insts                0                       # Number of committed floating point instructions.
system.switch_cpus_1.commit.function_calls      1881177                       # Number of function calls committed.
system.switch_cpus_1.commit.int_insts       366395447                       # Number of committed integer instructions.
system.switch_cpus_1.commit.loads            98844719                       # Number of loads committed
system.switch_cpus_1.commit.membars             52113                       # Number of memory barriers committed
system.switch_cpus_1.commit.op_class_0::No_OpClass          108      0.00%      0.00% # Class of committed instruction
system.switch_cpus_1.commit.op_class_0::IntAlu    257949787     48.00%     48.00% # Class of committed instruction
system.switch_cpus_1.commit.op_class_0::IntMult      2918816      0.54%     48.54% # Class of committed instruction
system.switch_cpus_1.commit.op_class_0::IntDiv       192111      0.04%     48.58% # Class of committed instruction
system.switch_cpus_1.commit.op_class_0::FloatAdd     35651637      6.63%     55.21% # Class of committed instruction
system.switch_cpus_1.commit.op_class_0::FloatCmp      5033444      0.94%     56.15% # Class of committed instruction
system.switch_cpus_1.commit.op_class_0::FloatCvt      5627999      1.05%     57.20% # Class of committed instruction
system.switch_cpus_1.commit.op_class_0::FloatMult     34879555      6.49%     63.69% # Class of committed instruction
system.switch_cpus_1.commit.op_class_0::FloatMultAcc     47311304      8.80%     72.49% # Class of committed instruction
system.switch_cpus_1.commit.op_class_0::FloatDiv            0      0.00%     72.49% # Class of committed instruction
system.switch_cpus_1.commit.op_class_0::FloatMisc      4030410      0.75%     73.24% # Class of committed instruction
system.switch_cpus_1.commit.op_class_0::FloatSqrt            0      0.00%     73.24% # Class of committed instruction
system.switch_cpus_1.commit.op_class_0::SimdAdd          241      0.00%     73.24% # Class of committed instruction
system.switch_cpus_1.commit.op_class_0::SimdAddAcc            0      0.00%     73.24% # Class of committed instruction
system.switch_cpus_1.commit.op_class_0::SimdAlu          262      0.00%     73.24% # Class of committed instruction
system.switch_cpus_1.commit.op_class_0::SimdCmp          236      0.00%     73.24% # Class of committed instruction
system.switch_cpus_1.commit.op_class_0::SimdCvt            0      0.00%     73.24% # Class of committed instruction
system.switch_cpus_1.commit.op_class_0::SimdMisc          366      0.00%     73.24% # Class of committed instruction
system.switch_cpus_1.commit.op_class_0::SimdMult            0      0.00%     73.24% # Class of committed instruction
system.switch_cpus_1.commit.op_class_0::SimdMultAcc            0      0.00%     73.24% # Class of committed instruction
system.switch_cpus_1.commit.op_class_0::SimdShift            0      0.00%     73.24% # Class of committed instruction
system.switch_cpus_1.commit.op_class_0::SimdShiftAcc            0      0.00%     73.24% # Class of committed instruction
system.switch_cpus_1.commit.op_class_0::SimdDiv            0      0.00%     73.24% # Class of committed instruction
system.switch_cpus_1.commit.op_class_0::SimdSqrt            0      0.00%     73.24% # Class of committed instruction
system.switch_cpus_1.commit.op_class_0::SimdFloatAdd            0      0.00%     73.24% # Class of committed instruction
system.switch_cpus_1.commit.op_class_0::SimdFloatAlu            0      0.00%     73.24% # Class of committed instruction
system.switch_cpus_1.commit.op_class_0::SimdFloatCmp            0      0.00%     73.24% # Class of committed instruction
system.switch_cpus_1.commit.op_class_0::SimdFloatCvt            0      0.00%     73.24% # Class of committed instruction
system.switch_cpus_1.commit.op_class_0::SimdFloatDiv            0      0.00%     73.24% # Class of committed instruction
system.switch_cpus_1.commit.op_class_0::SimdFloatMisc            0      0.00%     73.24% # Class of committed instruction
system.switch_cpus_1.commit.op_class_0::SimdFloatMult            0      0.00%     73.24% # Class of committed instruction
system.switch_cpus_1.commit.op_class_0::SimdFloatMultAcc            0      0.00%     73.24% # Class of committed instruction
system.switch_cpus_1.commit.op_class_0::SimdFloatSqrt            0      0.00%     73.24% # Class of committed instruction
system.switch_cpus_1.commit.op_class_0::SimdReduceAdd            0      0.00%     73.24% # Class of committed instruction
system.switch_cpus_1.commit.op_class_0::SimdReduceAlu            0      0.00%     73.24% # Class of committed instruction
system.switch_cpus_1.commit.op_class_0::SimdReduceCmp            0      0.00%     73.24% # Class of committed instruction
system.switch_cpus_1.commit.op_class_0::SimdFloatReduceAdd            0      0.00%     73.24% # Class of committed instruction
system.switch_cpus_1.commit.op_class_0::SimdFloatReduceCmp            0      0.00%     73.24% # Class of committed instruction
system.switch_cpus_1.commit.op_class_0::SimdAes            0      0.00%     73.24% # Class of committed instruction
system.switch_cpus_1.commit.op_class_0::SimdAesMix            0      0.00%     73.24% # Class of committed instruction
system.switch_cpus_1.commit.op_class_0::SimdSha1Hash            0      0.00%     73.24% # Class of committed instruction
system.switch_cpus_1.commit.op_class_0::SimdSha1Hash2            0      0.00%     73.24% # Class of committed instruction
system.switch_cpus_1.commit.op_class_0::SimdSha256Hash            0      0.00%     73.24% # Class of committed instruction
system.switch_cpus_1.commit.op_class_0::SimdSha256Hash2            0      0.00%     73.24% # Class of committed instruction
system.switch_cpus_1.commit.op_class_0::SimdShaSigma2            0      0.00%     73.24% # Class of committed instruction
system.switch_cpus_1.commit.op_class_0::SimdShaSigma3            0      0.00%     73.24% # Class of committed instruction
system.switch_cpus_1.commit.op_class_0::SimdPredAlu            0      0.00%     73.24% # Class of committed instruction
system.switch_cpus_1.commit.op_class_0::MemRead     98844719     18.39%     91.63% # Class of committed instruction
system.switch_cpus_1.commit.op_class_0::MemWrite     44970021      8.37%    100.00% # Class of committed instruction
system.switch_cpus_1.commit.op_class_0::FloatMemRead            0      0.00%    100.00% # Class of committed instruction
system.switch_cpus_1.commit.op_class_0::FloatMemWrite            0      0.00%    100.00% # Class of committed instruction
system.switch_cpus_1.commit.op_class_0::IprAccess            0      0.00%    100.00% # Class of committed instruction
system.switch_cpus_1.commit.op_class_0::InstPrefetch            0      0.00%    100.00% # Class of committed instruction
system.switch_cpus_1.commit.op_class_0::total    537411016                       # Class of committed instruction
system.switch_cpus_1.commit.refs            143814740                       # Number of memory references committed
system.switch_cpus_1.commit.swp_count               0                       # Number of s/w prefetches committed
system.switch_cpus_1.commit.vec_insts       192422904                       # Number of committed Vector instructions.
system.switch_cpus_1.committedInsts         500000000                       # Number of Instructions Simulated
system.switch_cpus_1.committedOps           537074941                       # Number of Ops (including micro ops) Simulated
system.switch_cpus_1.cpi                     0.511584                       # CPI: Cycles Per Instruction
system.switch_cpus_1.cpi_total               0.511584                       # CPI: Total CPI of All Threads
system.switch_cpus_1.decode.BlockedCycles    151707424                       # Number of cycles decode is blocked
system.switch_cpus_1.decode.BranchMispred          533                       # Number of times decode detected a branch misprediction
system.switch_cpus_1.decode.BranchResolved     36103670                       # Number of times decode resolved a branch
system.switch_cpus_1.decode.DecodedInsts    610419832                       # Number of instructions handled by decode
system.switch_cpus_1.decode.IdleCycles       24729070                       # Number of cycles decode is idle
system.switch_cpus_1.decode.RunCycles        22919002                       # Number of cycles decode is running
system.switch_cpus_1.decode.SquashCycles       947223                       # Number of cycles decode is squashing
system.switch_cpus_1.decode.SquashedInsts         2016                       # Number of squashed instructions handled by decode
system.switch_cpus_1.decode.UnblockCycles     55470074                       # Number of cycles decode is unblocking
system.switch_cpus_1.dtb.accesses                   0                       # DTB accesses
system.switch_cpus_1.dtb.align_faults               0                       # Number of TLB faults due to alignment restrictions
system.switch_cpus_1.dtb.domain_faults              0                       # Number of TLB faults due to domain restrictions
system.switch_cpus_1.dtb.flush_entries              0                       # Number of entries that have been flushed from TLB
system.switch_cpus_1.dtb.flush_tlb                  0                       # Number of times complete TLB was flushed
system.switch_cpus_1.dtb.flush_tlb_asid             0                       # Number of times TLB was flushed by ASID
system.switch_cpus_1.dtb.flush_tlb_mva              0                       # Number of times TLB was flushed by MVA
system.switch_cpus_1.dtb.flush_tlb_mva_asid            0                       # Number of times TLB was flushed by MVA & ASID
system.switch_cpus_1.dtb.hits                       0                       # DTB hits
system.switch_cpus_1.dtb.inst_accesses              0                       # ITB inst accesses
system.switch_cpus_1.dtb.inst_hits                  0                       # ITB inst hits
system.switch_cpus_1.dtb.inst_misses                0                       # ITB inst misses
system.switch_cpus_1.dtb.misses                     0                       # DTB misses
system.switch_cpus_1.dtb.perms_faults               0                       # Number of TLB faults due to permissions restrictions
system.switch_cpus_1.dtb.prefetch_faults            0                       # Number of TLB faults due to prefetch
system.switch_cpus_1.dtb.read_accesses              0                       # DTB read accesses
system.switch_cpus_1.dtb.read_hits                  0                       # DTB read hits
system.switch_cpus_1.dtb.read_misses                0                       # DTB read misses
system.switch_cpus_1.dtb.stage2_mmu.stage2_tlb.accesses            0                       # DTB accesses
system.switch_cpus_1.dtb.stage2_mmu.stage2_tlb.align_faults            0                       # Number of TLB faults due to alignment restrictions
system.switch_cpus_1.dtb.stage2_mmu.stage2_tlb.domain_faults            0                       # Number of TLB faults due to domain restrictions
system.switch_cpus_1.dtb.stage2_mmu.stage2_tlb.flush_entries            0                       # Number of entries that have been flushed from TLB
system.switch_cpus_1.dtb.stage2_mmu.stage2_tlb.flush_tlb            0                       # Number of times complete TLB was flushed
system.switch_cpus_1.dtb.stage2_mmu.stage2_tlb.flush_tlb_asid            0                       # Number of times TLB was flushed by ASID
system.switch_cpus_1.dtb.stage2_mmu.stage2_tlb.flush_tlb_mva            0                       # Number of times TLB was flushed by MVA
system.switch_cpus_1.dtb.stage2_mmu.stage2_tlb.flush_tlb_mva_asid            0                       # Number of times TLB was flushed by MVA & ASID
system.switch_cpus_1.dtb.stage2_mmu.stage2_tlb.hits            0                       # DTB hits
system.switch_cpus_1.dtb.stage2_mmu.stage2_tlb.inst_accesses            0                       # ITB inst accesses
system.switch_cpus_1.dtb.stage2_mmu.stage2_tlb.inst_hits            0                       # ITB inst hits
system.switch_cpus_1.dtb.stage2_mmu.stage2_tlb.inst_misses            0                       # ITB inst misses
system.switch_cpus_1.dtb.stage2_mmu.stage2_tlb.misses            0                       # DTB misses
system.switch_cpus_1.dtb.stage2_mmu.stage2_tlb.perms_faults            0                       # Number of TLB faults due to permissions restrictions
system.switch_cpus_1.dtb.stage2_mmu.stage2_tlb.prefetch_faults            0                       # Number of TLB faults due to prefetch
system.switch_cpus_1.dtb.stage2_mmu.stage2_tlb.read_accesses            0                       # DTB read accesses
system.switch_cpus_1.dtb.stage2_mmu.stage2_tlb.read_hits            0                       # DTB read hits
system.switch_cpus_1.dtb.stage2_mmu.stage2_tlb.read_misses            0                       # DTB read misses
system.switch_cpus_1.dtb.stage2_mmu.stage2_tlb.walker.walkRequestOrigin_Requested::Data            0                       # Table walker requests started/completed, data/inst
system.switch_cpus_1.dtb.stage2_mmu.stage2_tlb.walker.walkRequestOrigin_Requested::Inst            0                       # Table walker requests started/completed, data/inst
system.switch_cpus_1.dtb.stage2_mmu.stage2_tlb.walker.walkRequestOrigin_Requested::total            0                       # Table walker requests started/completed, data/inst
system.switch_cpus_1.dtb.stage2_mmu.stage2_tlb.walker.walkRequestOrigin_Completed::Data            0                       # Table walker requests started/completed, data/inst
system.switch_cpus_1.dtb.stage2_mmu.stage2_tlb.walker.walkRequestOrigin_Completed::Inst            0                       # Table walker requests started/completed, data/inst
system.switch_cpus_1.dtb.stage2_mmu.stage2_tlb.walker.walkRequestOrigin_Completed::total            0                       # Table walker requests started/completed, data/inst
system.switch_cpus_1.dtb.stage2_mmu.stage2_tlb.walker.walkRequestOrigin::total            0                       # Table walker requests started/completed, data/inst
system.switch_cpus_1.dtb.stage2_mmu.stage2_tlb.walker.walks            0                       # Table walker walks requested
system.switch_cpus_1.dtb.stage2_mmu.stage2_tlb.write_accesses            0                       # DTB write accesses
system.switch_cpus_1.dtb.stage2_mmu.stage2_tlb.write_hits            0                       # DTB write hits
system.switch_cpus_1.dtb.stage2_mmu.stage2_tlb.write_misses            0                       # DTB write misses
system.switch_cpus_1.dtb.walker.walkRequestOrigin_Requested::Data            0                       # Table walker requests started/completed, data/inst
system.switch_cpus_1.dtb.walker.walkRequestOrigin_Requested::Inst            0                       # Table walker requests started/completed, data/inst
system.switch_cpus_1.dtb.walker.walkRequestOrigin_Requested::total            0                       # Table walker requests started/completed, data/inst
system.switch_cpus_1.dtb.walker.walkRequestOrigin_Completed::Data            0                       # Table walker requests started/completed, data/inst
system.switch_cpus_1.dtb.walker.walkRequestOrigin_Completed::Inst            0                       # Table walker requests started/completed, data/inst
system.switch_cpus_1.dtb.walker.walkRequestOrigin_Completed::total            0                       # Table walker requests started/completed, data/inst
system.switch_cpus_1.dtb.walker.walkRequestOrigin::total            0                       # Table walker requests started/completed, data/inst
system.switch_cpus_1.dtb.walker.walks               0                       # Table walker walks requested
system.switch_cpus_1.dtb.write_accesses             0                       # DTB write accesses
system.switch_cpus_1.dtb.write_hits                 0                       # DTB write hits
system.switch_cpus_1.dtb.write_misses               0                       # DTB write misses
system.switch_cpus_1.fetch.Branches          73980185                       # Number of branches that fetch encountered
system.switch_cpus_1.fetch.CacheLines        70320269                       # Number of cache lines fetched
system.switch_cpus_1.fetch.Cycles           254043825                       # Number of cycles fetch has run and was not squashing or blocked
system.switch_cpus_1.fetch.IcacheSquashes          345                       # Number of outstanding Icache misses that were squashed
system.switch_cpus_1.fetch.IcacheWaitRetryStallCycles          167                       # Number of stall cycles due to full MSHR
system.switch_cpus_1.fetch.Insts            594077369                       # Number of instructions fetch has processed
system.switch_cpus_1.fetch.MiscStallCycles          925                       # Number of cycles fetch has spent waiting on interrupts, or bad addresses, or out of MSHRs
system.switch_cpus_1.fetch.PendingTrapStallCycles           38                       # Number of stall cycles due to pending traps
system.switch_cpus_1.fetch.SquashCycles       1895506                       # Number of cycles fetch has spent squashing
system.switch_cpus_1.fetch.branchRate        0.289220                       # Number of branch fetches per cycle
system.switch_cpus_1.fetch.icacheStallCycles       780088                       # Number of cycles fetch is stalled on an Icache miss
system.switch_cpus_1.fetch.predictedBranches     40931770                       # Number of branches that fetch has predicted taken
system.switch_cpus_1.fetch.rate              2.322501                       # Number of inst fetches per cycle
system.switch_cpus_1.fetch.rateDist::samples    255772796                       # Number of instructions fetched each cycle (Total)
system.switch_cpus_1.fetch.rateDist::mean     2.498346                       # Number of instructions fetched each cycle (Total)
system.switch_cpus_1.fetch.rateDist::stdev     3.140326                       # Number of instructions fetched each cycle (Total)
system.switch_cpus_1.fetch.rateDist::underflows            0      0.00%      0.00% # Number of instructions fetched each cycle (Total)
system.switch_cpus_1.fetch.rateDist::0      128727009     50.33%     50.33% # Number of instructions fetched each cycle (Total)
system.switch_cpus_1.fetch.rateDist::1       19271802      7.53%     57.86% # Number of instructions fetched each cycle (Total)
system.switch_cpus_1.fetch.rateDist::2       13499374      5.28%     63.14% # Number of instructions fetched each cycle (Total)
system.switch_cpus_1.fetch.rateDist::3       10640795      4.16%     67.30% # Number of instructions fetched each cycle (Total)
system.switch_cpus_1.fetch.rateDist::4       12164013      4.76%     72.06% # Number of instructions fetched each cycle (Total)
system.switch_cpus_1.fetch.rateDist::5        8613766      3.37%     75.43% # Number of instructions fetched each cycle (Total)
system.switch_cpus_1.fetch.rateDist::6       11686054      4.57%     79.99% # Number of instructions fetched each cycle (Total)
system.switch_cpus_1.fetch.rateDist::7       10384995      4.06%     84.05% # Number of instructions fetched each cycle (Total)
system.switch_cpus_1.fetch.rateDist::8       40784988     15.95%    100.00% # Number of instructions fetched each cycle (Total)
system.switch_cpus_1.fetch.rateDist::overflows            0      0.00%    100.00% # Number of instructions fetched each cycle (Total)
system.switch_cpus_1.fetch.rateDist::min_value            0                       # Number of instructions fetched each cycle (Total)
system.switch_cpus_1.fetch.rateDist::max_value            8                       # Number of instructions fetched each cycle (Total)
system.switch_cpus_1.fetch.rateDist::total    255772796                       # Number of instructions fetched each cycle (Total)
system.switch_cpus_1.idleCycles                 19285                       # Total number of cycles that the CPU has spent unscheduled due to idling
system.switch_cpus_1.iew.branchMispredicts       987706                       # Number of branch mispredicts detected at execute
system.switch_cpus_1.iew.exec_branches       63482289                       # Number of branches executed
system.switch_cpus_1.iew.exec_nop              384327                       # number of nop insts executed
system.switch_cpus_1.iew.exec_rate           2.256367                       # Inst execution rate
system.switch_cpus_1.iew.exec_refs          154509843                       # number of memory reference insts executed
system.switch_cpus_1.iew.exec_stores         46570759                       # Number of stores executed
system.switch_cpus_1.iew.exec_swp                   0                       # number of swp insts executed
system.switch_cpus_1.iew.iewBlockCycles       7616897                       # Number of cycles IEW is blocking
system.switch_cpus_1.iew.iewDispLoadInsts    108620553                       # Number of dispatched load instructions
system.switch_cpus_1.iew.iewDispNonSpecInsts        52779                       # Number of dispatched non-speculative instructions
system.switch_cpus_1.iew.iewDispSquashedInsts        11397                       # Number of squashed instructions skipped by dispatch
system.switch_cpus_1.iew.iewDispStoreInsts     47631590                       # Number of dispatched store instructions
system.switch_cpus_1.iew.iewDispatchedInsts    596979915                       # Number of instructions dispatched to IQ
system.switch_cpus_1.iew.iewExecLoadInsts    107939084                       # Number of load instructions executed
system.switch_cpus_1.iew.iewExecSquashedInsts      1278573                       # Number of squashed instructions skipped in execute
system.switch_cpus_1.iew.iewExecutedInsts    577160714                       # Number of executed instructions
system.switch_cpus_1.iew.iewIQFullEvents       569901                       # Number of times the IQ has become full, causing a stall
system.switch_cpus_1.iew.iewIdleCycles              0                       # Number of cycles IEW is idle
system.switch_cpus_1.iew.iewLSQFullEvents     10336362                       # Number of times the LSQ has become full, causing a stall
system.switch_cpus_1.iew.iewSquashCycles       947223                       # Number of cycles IEW is squashing
system.switch_cpus_1.iew.iewUnblockCycles     10930926                       # Number of cycles IEW is unblocking
system.switch_cpus_1.iew.lsq.thread0.blockedLoads            0                       # Number of blocked loads due to partial load-store forwarding
system.switch_cpus_1.iew.lsq.thread0.cacheBlocked       553580                       # Number of times an access to memory failed due to the cache being blocked
system.switch_cpus_1.iew.lsq.thread0.forwLoads      4816139                       # Number of loads that had data forwarded from stores
system.switch_cpus_1.iew.lsq.thread0.ignoredResponses           43                       # Number of memory responses ignored because the instruction is squashed
system.switch_cpus_1.iew.lsq.thread0.invAddrLoads            0                       # Number of loads ignored due to an invalid address
system.switch_cpus_1.iew.lsq.thread0.invAddrSwpfs            0                       # Number of software prefetches ignored due to an invalid address
system.switch_cpus_1.iew.lsq.thread0.memOrderViolation         4077                       # Number of memory ordering violations
system.switch_cpus_1.iew.lsq.thread0.rescheduledLoads      2598631                       # Number of loads that were rescheduled
system.switch_cpus_1.iew.lsq.thread0.squashedLoads      9775819                       # Number of loads squashed
system.switch_cpus_1.iew.lsq.thread0.squashedStores      2661566                       # Number of stores squashed
system.switch_cpus_1.iew.memOrderViolationEvents         4077                       # Number of memory order violations
system.switch_cpus_1.iew.predictedNotTakenIncorrect       499424                       # Number of branches that were predicted not taken incorrectly
system.switch_cpus_1.iew.predictedTakenIncorrect       488282                       # Number of branches that were predicted taken incorrectly
system.switch_cpus_1.iew.wb_consumers       668287961                       # num instructions consuming a value
system.switch_cpus_1.iew.wb_count           573515921                       # cumulative count of insts written-back
system.switch_cpus_1.iew.wb_fanout           0.578994                       # average fanout of values written-back
system.switch_cpus_1.iew.wb_producers       386934628                       # num instructions producing a value
system.switch_cpus_1.iew.wb_rate             2.242118                       # insts written-back per cycle
system.switch_cpus_1.iew.wb_sent            574274636                       # cumulative count of insts sent to commit
system.switch_cpus_1.int_regfile_reads      531331213                       # number of integer regfile reads
system.switch_cpus_1.int_regfile_writes     283819931                       # number of integer regfile writes
system.switch_cpus_1.ipc                     1.954713                       # IPC: Instructions Per Cycle
system.switch_cpus_1.ipc_total               1.954713                       # IPC: Total IPC of All Threads
system.switch_cpus_1.iq.FU_type_0::No_OpClass          128      0.00%      0.00% # Type of FU issued
system.switch_cpus_1.iq.FU_type_0::IntAlu    279771068     48.37%     48.37% # Type of FU issued
system.switch_cpus_1.iq.FU_type_0::IntMult      2920641      0.50%     48.87% # Type of FU issued
system.switch_cpus_1.iq.FU_type_0::IntDiv       192127      0.03%     48.90% # Type of FU issued
system.switch_cpus_1.iq.FU_type_0::FloatAdd     40107272      6.93%     55.84% # Type of FU issued
system.switch_cpus_1.iq.FU_type_0::FloatCmp      5407950      0.93%     56.77% # Type of FU issued
system.switch_cpus_1.iq.FU_type_0::FloatCvt      5629472      0.97%     57.75% # Type of FU issued
[...]
system.cpu.dcache.overall_mshr_miss_latency::.switch_cpus_1.data  69216875434                       # number of overall MSHR miss cycles
system.cpu.dcache.overall_mshr_miss_latency::total  70258103934                       # number of overall MSHR miss cycles
system.cpu.dcache.demand_mshr_miss_rate::.switch_cpus.data     0.000622                       # mshr miss rate for demand accesses
system.cpu.dcache.demand_mshr_miss_rate::.switch_cpus_1.data     0.004181                       # mshr miss rate for demand accesses
system.cpu.dcache.demand_mshr_miss_rate::total     0.001193                       # mshr miss rate for demand accesses
system.cpu.dcache.overall_mshr_miss_rate::.switch_cpus.data     0.000620                       # mshr miss rate for overall accesses
system.cpu.dcache.overall_mshr_miss_rate::.switch_cpus_1.data     0.004173                       # mshr miss rate for overall accesses
system.cpu.dcache.overall_mshr_miss_rate::total     0.001191                       # mshr miss rate for overall accesses
system.cpu.dcache.demand_avg_mshr_miss_latency::.switch_cpus.data 71151.325680                       # average overall mshr miss latency
system.cpu.dcache.demand_avg_mshr_miss_latency::.switch_cpus_1.data 112864.384327                       # average overall mshr miss latency
system.cpu.dcache.demand_avg_mshr_miss_latency::total 111892.221367                       # average overall mshr miss latency
system.cpu.dcache.overall_avg_mshr_miss_latency::.switch_cpus.data 71151.325680                       # average overall mshr miss latency
system.cpu.dcache.overall_avg_mshr_miss_latency::.switch_cpus_1.data 112864.335631                       # average overall mshr miss latency
system.cpu.dcache.overall_avg_mshr_miss_latency::total 111892.175353                       # average overall mshr miss latency
system.cpu.dcache.replacements                 770291                       # number of replacements
system.cpu.dcache.ReadReq_hits::.cpu.data    196368650                       # number of ReadReq hits
system.cpu.dcache.ReadReq_hits::.switch_cpus.data     13910018                       # number of ReadReq hits
system.cpu.dcache.ReadReq_hits::.switch_cpus_1.data    101685564                       # number of ReadReq hits
system.cpu.dcache.ReadReq_hits::total       311964232                       # number of ReadReq hits
system.cpu.dcache.ReadReq_misses::.cpu.data         1433                       # number of ReadReq misses
system.cpu.dcache.ReadReq_misses::.switch_cpus_1.data        43927                       # number of ReadReq misses
system.cpu.dcache.ReadReq_misses::total         45360                       # number of ReadReq misses
system.cpu.dcache.ReadReq_miss_latency::.switch_cpus_1.data   3011327000                       # number of ReadReq miss cycles
system.cpu.dcache.ReadReq_miss_latency::total   3011327000                       # number of ReadReq miss cycles
system.cpu.dcache.ReadReq_accesses::.cpu.data    196370083                       # number of ReadReq accesses(hits+misses)
system.cpu.dcache.ReadReq_accesses::.switch_cpus.data     13910018                       # number of ReadReq accesses(hits+misses)
system.cpu.dcache.ReadReq_accesses::.switch_cpus_1.data    101729491                       # number of ReadReq accesses(hits+misses)
system.cpu.dcache.ReadReq_accesses::total    312009592                       # number of ReadReq accesses(hits+misses)
system.cpu.dcache.ReadReq_miss_rate::.cpu.data     0.000007                       # miss rate for ReadReq accesses
system.cpu.dcache.ReadReq_miss_rate::.switch_cpus_1.data     0.000432                       # miss rate for ReadReq accesses
system.cpu.dcache.ReadReq_miss_rate::total     0.000145                       # miss rate for ReadReq accesses
system.cpu.dcache.ReadReq_avg_miss_latency::.switch_cpus_1.data 68552.985635                       # average ReadReq miss latency
system.cpu.dcache.ReadReq_avg_miss_latency::total 66387.279541                       # average ReadReq miss latency
system.cpu.dcache.ReadReq_mshr_hits::.switch_cpus_1.data        23663                       # number of ReadReq MSHR hits
system.cpu.dcache.ReadReq_mshr_hits::total        23663                       # number of ReadReq MSHR hits
system.cpu.dcache.ReadReq_mshr_misses::.switch_cpus_1.data        20264                       # number of ReadReq MSHR misses
system.cpu.dcache.ReadReq_mshr_misses::total        20264                       # number of ReadReq MSHR misses
system.cpu.dcache.ReadReq_mshr_miss_latency::.switch_cpus_1.data   1505478500                       # number of ReadReq MSHR miss cycles
system.cpu.dcache.ReadReq_mshr_miss_latency::total   1505478500                       # number of ReadReq MSHR miss cycles
system.cpu.dcache.ReadReq_mshr_miss_rate::.switch_cpus_1.data     0.000199                       # mshr miss rate for ReadReq accesses
system.cpu.dcache.ReadReq_mshr_miss_rate::total     0.000065                       # mshr miss rate for ReadReq accesses
system.cpu.dcache.ReadReq_avg_mshr_miss_latency::.switch_cpus_1.data 74293.254047                       # average ReadReq mshr miss latency
system.cpu.dcache.ReadReq_avg_mshr_miss_latency::total 74293.254047                       # average ReadReq mshr miss latency
system.cpu.dcache.WriteReq_hits::.cpu.data    159556298                       # number of WriteReq hits
system.cpu.dcache.WriteReq_hits::.switch_cpus.data      9604772                       # number of WriteReq hits
system.cpu.dcache.WriteReq_hits::.switch_cpus_1.data     40260911                       # number of WriteReq hits
system.cpu.dcache.WriteReq_hits::total      209421981                       # number of WriteReq hits
system.cpu.dcache.WriteReq_misses::.cpu.data       145032                       # number of WriteReq misses
system.cpu.dcache.WriteReq_misses::.switch_cpus.data        14634                       # number of WriteReq misses
system.cpu.dcache.WriteReq_misses::.switch_cpus_1.data      4698926                       # number of WriteReq misses
system.cpu.dcache.WriteReq_misses::total      4858592                       # number of WriteReq misses
system.cpu.dcache.WriteReq_miss_latency::.switch_cpus.data   1048545500                       # number of WriteReq miss cycles
system.cpu.dcache.WriteReq_miss_latency::.switch_cpus_1.data 423461240357                       # number of WriteReq miss cycles
system.cpu.dcache.WriteReq_miss_latency::total 424509785857                       # number of WriteReq miss cycles
system.cpu.dcache.WriteReq_accesses::.cpu.data    159701330                       # number of WriteReq accesses(hits+misses)
system.cpu.dcache.WriteReq_accesses::.switch_cpus.data      9619406                       # number of WriteReq accesses(hits+misses)
system.cpu.dcache.WriteReq_accesses::.switch_cpus_1.data     44959837                       # number of WriteReq accesses(hits+misses)
system.cpu.dcache.WriteReq_accesses::total    214280573                       # number of WriteReq accesses(hits+misses)
system.cpu.dcache.WriteReq_miss_rate::.cpu.data     0.000908                       # miss rate for WriteReq accesses
system.cpu.dcache.WriteReq_miss_rate::.switch_cpus.data     0.001521                       # miss rate for WriteReq accesses
system.cpu.dcache.WriteReq_miss_rate::.switch_cpus_1.data     0.104514                       # miss rate for WriteReq accesses
system.cpu.dcache.WriteReq_miss_rate::total     0.022674                       # miss rate for WriteReq accesses
system.cpu.dcache.WriteReq_avg_miss_latency::.switch_cpus.data 71651.325680                       # average WriteReq miss latency
system.cpu.dcache.WriteReq_avg_miss_latency::.switch_cpus_1.data 90118.729335                       # average WriteReq miss latency
system.cpu.dcache.WriteReq_avg_miss_latency::total 87373.005566                       # average WriteReq miss latency
system.cpu.dcache.WriteReq_mshr_hits::.switch_cpus_1.data      4105916                       # number of WriteReq MSHR hits
system.cpu.dcache.WriteReq_mshr_hits::total      4105916                       # number of WriteReq MSHR hits
system.cpu.dcache.WriteReq_mshr_misses::.switch_cpus.data        14634                       # number of WriteReq MSHR misses
system.cpu.dcache.WriteReq_mshr_misses::.switch_cpus_1.data       593010                       # number of WriteReq MSHR misses
system.cpu.dcache.WriteReq_mshr_misses::total       607644                       # number of WriteReq MSHR misses
system.cpu.dcache.WriteReq_mshr_miss_latency::.switch_cpus.data   1041228500                       # number of WriteReq MSHR miss cycles
system.cpu.dcache.WriteReq_mshr_miss_latency::.switch_cpus_1.data  67711313934                       # number of WriteReq MSHR miss cycles
system.cpu.dcache.WriteReq_mshr_miss_latency::total  68752542434                       # number of WriteReq MSHR miss cycles
system.cpu.dcache.WriteReq_mshr_miss_rate::.switch_cpus.data     0.001521                       # mshr miss rate for WriteReq accesses
system.cpu.dcache.WriteReq_mshr_miss_rate::.switch_cpus_1.data     0.013190                       # mshr miss rate for WriteReq accesses
system.cpu.dcache.WriteReq_mshr_miss_rate::total     0.002836                       # mshr miss rate for WriteReq accesses
system.cpu.dcache.WriteReq_avg_mshr_miss_latency::.switch_cpus.data 71151.325680                       # average WriteReq mshr miss latency
system.cpu.dcache.WriteReq_avg_mshr_miss_latency::.switch_cpus_1.data 114182.415025                       # average WriteReq mshr miss latency
system.cpu.dcache.WriteReq_avg_mshr_miss_latency::total 113146.089543                       # average WriteReq mshr miss latency
system.cpu.dcache.SoftPFReq_hits::.cpu.data       738075                       # number of SoftPFReq hits
system.cpu.dcache.SoftPFReq_hits::.switch_cpus.data        92686                       # number of SoftPFReq hits
system.cpu.dcache.SoftPFReq_hits::.switch_cpus_1.data       256690                       # number of SoftPFReq hits
system.cpu.dcache.SoftPFReq_hits::total       1087451                       # number of SoftPFReq hits
system.cpu.dcache.SoftPFReq_misses::.cpu.data            5                       # number of SoftPFReq misses
system.cpu.dcache.SoftPFReq_misses::.switch_cpus_1.data            1                       # number of SoftPFReq misses
system.cpu.dcache.SoftPFReq_misses::total            6                       # number of SoftPFReq misses
system.cpu.dcache.SoftPFReq_accesses::.cpu.data       738080                       # number of SoftPFReq accesses(hits+misses)
system.cpu.dcache.SoftPFReq_accesses::.switch_cpus.data        92686                       # number of SoftPFReq accesses(hits+misses)
system.cpu.dcache.SoftPFReq_accesses::.switch_cpus_1.data       256691                       # number of SoftPFReq accesses(hits+misses)
system.cpu.dcache.SoftPFReq_accesses::total      1087457                       # number of SoftPFReq accesses(hits+misses)
system.cpu.dcache.SoftPFReq_miss_rate::.cpu.data     0.000007                       # miss rate for SoftPFReq accesses
system.cpu.dcache.SoftPFReq_miss_rate::.switch_cpus_1.data     0.000004                       # miss rate for SoftPFReq accesses
system.cpu.dcache.SoftPFReq_miss_rate::total     0.000006                       # miss rate for SoftPFReq accesses
system.cpu.dcache.SoftPFReq_mshr_misses::.switch_cpus_1.data            1                       # number of SoftPFReq MSHR misses
system.cpu.dcache.SoftPFReq_mshr_misses::total            1                       # number of SoftPFReq MSHR misses
system.cpu.dcache.SoftPFReq_mshr_miss_latency::.switch_cpus_1.data        83000                       # number of SoftPFReq MSHR miss cycles
system.cpu.dcache.SoftPFReq_mshr_miss_latency::total        83000                       # number of SoftPFReq MSHR miss cycles
system.cpu.dcache.SoftPFReq_mshr_miss_rate::.switch_cpus_1.data     0.000004                       # mshr miss rate for SoftPFReq accesses
system.cpu.dcache.SoftPFReq_mshr_miss_rate::total     0.000001                       # mshr miss rate for SoftPFReq accesses
system.cpu.dcache.SoftPFReq_avg_mshr_miss_latency::.switch_cpus_1.data        83000                       # average SoftPFReq mshr miss latency
system.cpu.dcache.SoftPFReq_avg_mshr_miss_latency::total        83000                       # average SoftPFReq mshr miss latency
system.cpu.dcache.WriteLineReq_hits::.cpu.data            7                       # number of WriteLineReq hits
system.cpu.dcache.WriteLineReq_hits::total            7                       # number of WriteLineReq hits
system.cpu.dcache.WriteLineReq_misses::.cpu.data            8                       # number of WriteLineReq misses
system.cpu.dcache.WriteLineReq_misses::total            8                       # number of WriteLineReq misses
system.cpu.dcache.WriteLineReq_accesses::.cpu.data           15                       # number of WriteLineReq accesses(hits+misses)
system.cpu.dcache.WriteLineReq_accesses::total           15                       # number of WriteLineReq accesses(hits+misses)
system.cpu.dcache.WriteLineReq_miss_rate::.cpu.data     0.533333                       # miss rate for WriteLineReq accesses
system.cpu.dcache.WriteLineReq_miss_rate::total     0.533333                       # miss rate for WriteLineReq accesses
system.cpu.dcache.LoadLockedReq_hits::.cpu.data      1594677                       # number of LoadLockedReq hits
system.cpu.dcache.LoadLockedReq_hits::.switch_cpus.data        18230                       # number of LoadLockedReq hits
system.cpu.dcache.LoadLockedReq_hits::.switch_cpus_1.data        52397                       # number of LoadLockedReq hits
system.cpu.dcache.LoadLockedReq_hits::total      1665304                       # number of LoadLockedReq hits
system.cpu.dcache.LoadLockedReq_misses::.switch_cpus_1.data            1                       # number of LoadLockedReq misses
system.cpu.dcache.LoadLockedReq_misses::total            1                       # number of LoadLockedReq misses
system.cpu.dcache.LoadLockedReq_miss_latency::.switch_cpus_1.data        83000                       # number of LoadLockedReq miss cycles
system.cpu.dcache.LoadLockedReq_miss_latency::total        83000                       # number of LoadLockedReq miss cycles
system.cpu.dcache.LoadLockedReq_accesses::.cpu.data      1594677                       # number of LoadLockedReq accesses(hits+misses)
system.cpu.dcache.LoadLockedReq_accesses::.switch_cpus.data        18230                       # number of LoadLockedReq accesses(hits+misses)
system.cpu.dcache.LoadLockedReq_accesses::.switch_cpus_1.data        52398                       # number of LoadLockedReq accesses(hits+misses)
system.cpu.dcache.LoadLockedReq_accesses::total      1665305                       # number of LoadLockedReq accesses(hits+misses)
system.cpu.dcache.LoadLockedReq_miss_rate::.switch_cpus_1.data     0.000019                       # miss rate for LoadLockedReq accesses
system.cpu.dcache.LoadLockedReq_miss_rate::total     0.000001                       # miss rate for LoadLockedReq accesses
system.cpu.dcache.LoadLockedReq_avg_miss_latency::.switch_cpus_1.data        83000                       # average LoadLockedReq miss latency
system.cpu.dcache.LoadLockedReq_avg_miss_latency::total        83000                       # average LoadLockedReq miss latency
system.cpu.dcache.LoadLockedReq_mshr_hits::.switch_cpus_1.data            1                       # number of LoadLockedReq MSHR hits
system.cpu.dcache.LoadLockedReq_mshr_hits::total            1                       # number of LoadLockedReq MSHR hits
system.cpu.dcache.StoreCondReq_hits::.cpu.data      1594677                       # number of StoreCondReq hits
system.cpu.dcache.StoreCondReq_hits::.switch_cpus.data        18230                       # number of StoreCondReq hits
system.cpu.dcache.StoreCondReq_hits::.switch_cpus_1.data        52113                       # number of StoreCondReq hits
system.cpu.dcache.StoreCondReq_hits::total      1665020                       # number of StoreCondReq hits
system.cpu.dcache.StoreCondReq_accesses::.cpu.data      1594677                       # number of StoreCondReq accesses(hits+misses)
system.cpu.dcache.StoreCondReq_accesses::.switch_cpus.data        18230                       # number of StoreCondReq accesses(hits+misses)
system.cpu.dcache.StoreCondReq_accesses::.switch_cpus_1.data        52113                       # number of StoreCondReq accesses(hits+misses)
system.cpu.dcache.StoreCondReq_accesses::total      1665020                       # number of StoreCondReq accesses(hits+misses)
system.cpu.dcache.power_state.pwrStateResidencyTicks::UNDEFINED 739004849000                       # Cumulative time (in ticks) in various power states
system.cpu.dcache.tags.tagsinuse          4069.586613                       # Cycle average of tags in use
system.cpu.dcache.tags.total_refs           526578382                       # Total number of references to valid blocks.
system.cpu.dcache.tags.sampled_refs            774387                       # Sample count of references to valid blocks.
system.cpu.dcache.tags.avg_refs            679.993830                       # Average number of references to valid blocks.
system.cpu.dcache.tags.warmup_cycle              1500                       # Cycle when the warmup percentage was hit.
system.cpu.dcache.tags.occ_blocks::.cpu.data  3147.551667                       # Average occupied blocks per requestor
system.cpu.dcache.tags.occ_blocks::.switch_cpus.data   234.912258                       # Average occupied blocks per requestor
system.cpu.dcache.tags.occ_blocks::.switch_cpus_1.data   687.122688                       # Average occupied blocks per requestor
system.cpu.dcache.tags.occ_percent::.cpu.data     0.768445                       # Average percentage of cache occupancy
system.cpu.dcache.tags.occ_percent::.switch_cpus.data     0.057352                       # Average percentage of cache occupancy
system.cpu.dcache.tags.occ_percent::.switch_cpus_1.data     0.167755                       # Average percentage of cache occupancy
system.cpu.dcache.tags.occ_percent::total     0.993551                       # Average percentage of cache occupancy
system.cpu.dcache.tags.occ_task_id_blocks::1024         4096                       # Occupied blocks per task id
system.cpu.dcache.tags.age_task_id_blocks_1024::0            7                       # Occupied blocks per task id
system.cpu.dcache.tags.age_task_id_blocks_1024::1          548                       # Occupied blocks per task id
system.cpu.dcache.tags.age_task_id_blocks_1024::2           86                       # Occupied blocks per task id
system.cpu.dcache.tags.age_task_id_blocks_1024::3         1888                       # Occupied blocks per task id
system.cpu.dcache.tags.age_task_id_blocks_1024::4         1567                       # Occupied blocks per task id
system.cpu.dcache.tags.occ_task_id_percent::1024            1                       # Percentage of cache occupancy per task id
system.cpu.dcache.tags.tag_accesses        4246438083                       # Number of tag accesses
system.cpu.dcache.tags.data_accesses       4246438083                       # Number of data accesses
system.cpu.dcache.tags.power_state.pwrStateResidencyTicks::UNDEFINED 739004849000                       # Cumulative time (in ticks) in various power states
system.cpu.power_state.numTransitions               2                       # Number of power state transitions
system.cpu.power_state.pwrStateResidencyTicks::ON 560723711000                       # Cumulative time (in ticks) in various power states
system.cpu.power_state.pwrStateResidencyTicks::OFF 178281138000                       # Cumulative time (in ticks) in various power states

---------- End Simulation Statistics   ----------
