
---------- Begin Simulation Statistics ----------
final_tick                                  148714000                       # Number of ticks from beginning of simulation (restored from checkpoints and never reset)
host_inst_rate                                 227912                       # Simulator instruction rate (inst/s)
host_mem_usage                                 846680                       # Number of bytes of host memory used
host_op_rate                                   232402                       # Simulator op (including micro ops) rate (op/s)
host_seconds                                     4.39                       # Real time elapsed on the host
host_tick_rate                               33892422                       # Simulator tick rate (ticks/s)
sim_freq                                 1000000000000                       # Frequency of simulated ticks
sim_insts                                     1000000                       # Number of instructions simulated
sim_ops                                       1019736                       # Number of ops (including micro ops) simulated
sim_seconds                                  0.000149                       # Number of seconds simulated
sim_ticks                                   148714000                       # Number of ticks simulated
system.cpu.branchPred.BTBCorrect                    0                       # Number of correct BTB predictions (this stat may not work properly.
system.cpu.branchPred.BTBHitPct             99.278615                       # BTB Hit Percentage
system.cpu.branchPred.BTBHits                  117667                       # Number of BTB hits
system.cpu.branchPred.BTBLookups               118522                       # Number of BTB lookups
system.cpu.branchPred.RASInCorrect                  0                       # Number of incorrect RAS predictions.
system.cpu.branchPred.condIncorrect              1020                       # Number of conditional branches incorrect
system.cpu.branchPred.condPredicted            143348                       # Number of conditional branches predicted
system.cpu.branchPred.indirectHits                 15                       # Number of indirect target hits.
system.cpu.branchPred.indirectLookups             238                       # Number of indirect predictor lookups.
system.cpu.branchPred.indirectMisses              223                       # Number of indirect misses.
system.cpu.branchPred.lookups                  158086                       # Number of BP lookups
system.cpu.branchPred.usedRAS                     743                       # Number of times the RAS was used to get a target.
system.cpu.branchPredindirectMispredicted           57                       # Number of mispredicted indirect branches.
system.cpu.cc_regfile_reads                    369756                       # number of cc regfile reads
system.cpu.cc_regfile_writes                   385744                       # number of cc regfile writes
system.cpu.commit.amos                              0                       # Number of atomic instructions committed
system.cpu.commit.branchMispredicts               770                       # The number of times a branch was mispredicted
system.cpu.commit.branches                     152825                       # Number of branches committed
system.cpu.commit.bw_lim_events                 27561                       # number cycles where commit BW limit reached
system.cpu.commit.commitNonSpecStalls              56                       # The number of times commit has been forced to stall to communicate backwards
system.cpu.commit.commitSquashedInsts           16090                       # The number of squashed insts skipped by commit
system.cpu.commit.committedInsts              1000086                       # Number of instructions committed
system.cpu.commit.committedOps                1019822                       # Number of ops (including micro ops) committed
system.cpu.commit.committed_per_cycle::samples       252189                       # Number of insts commited each cycle
system.cpu.commit.committed_per_cycle::mean     4.043880                       # Number of insts commited each cycle
system.cpu.commit.committed_per_cycle::stdev     3.287942                       # Number of insts commited each cycle
system.cpu.commit.committed_per_cycle::underflows            0      0.00%      0.00% # Number of insts commited each cycle
system.cpu.commit.committed_per_cycle::0        68237     27.06%     27.06% # Number of insts commited each cycle
system.cpu.commit.committed_per_cycle::1        28885     11.45%     38.51% # Number of insts commited each cycle
system.cpu.commit.committed_per_cycle::2        13846      5.49%     44.00% # Number of insts commited each cycle
system.cpu.commit.committed_per_cycle::3         7825      3.10%     47.10% # Number of insts commited each cycle
system.cpu.commit.committed_per_cycle::4         3736      1.48%     48.59% # Number of insts commited each cycle
system.cpu.commit.committed_per_cycle::5         1861      0.74%     49.32% # Number of insts commited each cycle
system.cpu.commit.committed_per_cycle::6         6633      2.63%     51.95% # Number of insts commited each cycle
system.cpu.commit.committed_per_cycle::7        93605     37.12%     89.07% # Number of insts commited each cycle
system.cpu.commit.committed_per_cycle::8        27561     10.93%    100.00% # Number of insts commited each cycle
system.cpu.commit.committed_per_cycle::overflows            0      0.00%    100.00% # Number of insts commited each cycle
system.cpu.commit.committed_per_cycle::min_value            0                       # Number of insts commited each cycle
system.cpu.commit.committed_per_cycle::max_value            8                       # Number of insts commited each cycle
system.cpu.commit.committed_per_cycle::total       252189                       # Number of insts commited each cycle
system.cpu.commit.fp_insts                          0                       # Number of committed floating point instructions.
system.cpu.commit.function_calls                  374                       # Number of function calls committed.
system.cpu.commit.int_insts                    810700                       # Number of committed integer instructions.
system.cpu.commit.loads                        256050                       # Number of loads committed
system.cpu.commit.membars                          48                       # Number of memory barriers committed
system.cpu.commit.op_class_0::No_OpClass           10      0.00%      0.00% # Class of committed instruction
system.cpu.commit.op_class_0::IntAlu           571430     56.03%     56.03% # Class of committed instruction
system.cpu.commit.op_class_0::IntMult            6238      0.61%     56.64% # Class of committed instruction
system.cpu.commit.op_class_0::IntDiv                7      0.00%     56.65% # Class of committed instruction
system.cpu.commit.op_class_0::FloatAdd           4094      0.40%     57.05% # Class of committed instruction
system.cpu.commit.op_class_0::FloatCmp          15846      1.55%     58.60% # Class of committed instruction
system.cpu.commit.op_class_0::FloatCvt           6163      0.60%     59.21% # Class of committed instruction
system.cpu.commit.op_class_0::FloatMult         21987      2.16%     61.36% # Class of committed instruction
system.cpu.commit.op_class_0::FloatMultAcc        21987      2.16%     63.52% # Class of committed instruction
system.cpu.commit.op_class_0::FloatDiv             22      0.00%     63.52% # Class of committed instruction
system.cpu.commit.op_class_0::FloatMisc          2070      0.20%     63.72% # Class of committed instruction
system.cpu.commit.op_class_0::FloatSqrt             0      0.00%     63.72% # Class of committed instruction
system.cpu.commit.op_class_0::SimdAdd              32      0.00%     63.73% # Class of committed instruction
system.cpu.commit.op_class_0::SimdAddAcc            0      0.00%     63.73% # Class of committed instruction
system.cpu.commit.op_class_0::SimdAlu              37      0.00%     63.73% # Class of committed instruction
system.cpu.commit.op_class_0::SimdCmp              40      0.00%     63.73% # Class of committed instruction
system.cpu.commit.op_class_0::SimdCvt               0      0.00%     63.73% # Class of committed instruction
system.cpu.commit.op_class_0::SimdMisc           2082      0.20%     63.94% # Class of committed instruction
system.cpu.commit.op_class_0::SimdMult              0      0.00%     63.94% # Class of committed instruction
system.cpu.commit.op_class_0::SimdMultAcc            0      0.00%     63.94% # Class of committed instruction
system.cpu.commit.op_class_0::SimdShift             0      0.00%     63.94% # Class of committed instruction
system.cpu.commit.op_class_0::SimdShiftAcc            0      0.00%     63.94% # Class of committed instruction
system.cpu.commit.op_class_0::SimdDiv               0      0.00%     63.94% # Class of committed instruction
system.cpu.commit.op_class_0::SimdSqrt              0      0.00%     63.94% # Class of committed instruction
system.cpu.commit.op_class_0::SimdFloatAdd            0      0.00%     63.94% # Class of committed instruction
system.cpu.commit.op_class_0::SimdFloatAlu            0      0.00%     63.94% # Class of committed instruction
system.cpu.commit.op_class_0::SimdFloatCmp            0      0.00%     63.94% # Class of committed instruction
system.cpu.commit.op_class_0::SimdFloatCvt            0      0.00%     63.94% # Class of committed instruction
system.cpu.commit.op_class_0::SimdFloatDiv            0      0.00%     63.94% # Class of committed instruction
system.cpu.commit.op_class_0::SimdFloatMisc            0      0.00%     63.94% # Class of committed instruction
system.cpu.commit.op_class_0::SimdFloatMult            0      0.00%     63.94% # Class of committed instruction
system.cpu.commit.op_class_0::SimdFloatMultAcc            0      0.00%     63.94% # Class of committed instruction
system.cpu.commit.op_class_0::SimdFloatSqrt            0      0.00%     63.94% # Class of committed instruction
system.cpu.commit.op_class_0::SimdReduceAdd            0      0.00%     63.94% # Class of committed instruction
system.cpu.commit.op_class_0::SimdReduceAlu            0      0.00%     63.94% # Class of committed instruction
system.cpu.commit.op_class_0::SimdReduceCmp            0      0.00%     63.94% # Class of committed instruction
system.cpu.commit.op_class_0::SimdFloatReduceAdd            0      0.00%     63.94% # Class of committed instruction
system.cpu.commit.op_class_0::SimdFloatReduceCmp            0      0.00%     63.94% # Class of committed instruction
system.cpu.commit.op_class_0::SimdAes               0      0.00%     63.94% # Class of committed instruction
system.cpu.commit.op_class_0::SimdAesMix            0      0.00%     63.94% # Class of committed instruction
system.cpu.commit.op_class_0::SimdSha1Hash            0      0.00%     63.94% # Class of committed instruction
system.cpu.commit.op_class_0::SimdSha1Hash2            0      0.00%     63.94% # Class of committed instruction
system.cpu.commit.op_class_0::SimdSha256Hash            0      0.00%     63.94% # Class of committed instruction
system.cpu.commit.op_class_0::SimdSha256Hash2            0      0.00%     63.94% # Class of committed instruction
system.cpu.commit.op_class_0::SimdShaSigma2            0      0.00%     63.94% # Class of committed instruction
system.cpu.commit.op_class_0::SimdShaSigma3            0      0.00%     63.94% # Class of committed instruction
system.cpu.commit.op_class_0::SimdPredAlu            0      0.00%     63.94% # Class of committed instruction
system.cpu.commit.op_class_0::MemRead          256050     25.11%     89.04% # Class of committed instruction
system.cpu.commit.op_class_0::MemWrite         111727     10.96%    100.00% # Class of committed instruction
system.cpu.commit.op_class_0::FloatMemRead            0      0.00%    100.00% # Class of committed instruction
system.cpu.commit.op_class_0::FloatMemWrite            0      0.00%    100.00% # Class of committed instruction
system.cpu.commit.op_class_0::IprAccess             0      0.00%    100.00% # Class of committed instruction
system.cpu.commit.op_class_0::InstPrefetch            0      0.00%    100.00% # Class of committed instruction
system.cpu.commit.op_class_0::total           1019822                       # Class of committed instruction
system.cpu.commit.refs                         367777                       # Number of memory references committed
system.cpu.commit.swp_count                         0                       # Number of s/w prefetches committed
system.cpu.commit.vec_insts                    110708                       # Number of committed Vector instructions.
system.cpu.committedInsts                     1000000                       # Number of Instructions Simulated
system.cpu.committedOps                       1019736                       # Number of Ops (including micro ops) Simulated
system.cpu.cpi                               0.297429                       # CPI: Cycles Per Instruction
system.cpu.cpi_total                         0.297429                       # CPI: Total CPI of All Threads
system.cpu.decode.BlockedCycles                 44701                       # Number of cycles decode is blocked
system.cpu.decode.BranchMispred                   257                       # Number of times decode detected a branch misprediction
system.cpu.decode.BranchResolved               117585                       # Number of times decode resolved a branch
system.cpu.decode.DecodedInsts                1043114                       # Number of instructions handled by decode
system.cpu.decode.IdleCycles                    48420                       # Number of cycles decode is idle
system.cpu.decode.RunCycles                    157789                       # Number of cycles decode is running
system.cpu.decode.SquashCycles                    809                       # Number of cycles decode is squashing
system.cpu.decode.SquashedInsts                   869                       # Number of squashed instructions handled by decode
system.cpu.decode.UnblockCycles                  2984                       # Number of cycles decode is unblocking
system.cpu.dtb.accesses                             0                       # DTB accesses
system.cpu.dtb.align_faults                         0                       # Number of TLB faults due to alignment restrictions
system.cpu.dtb.domain_faults                        0                       # Number of TLB faults due to domain restrictions
system.cpu.dtb.flush_entries                        0                       # Number of entries that have been flushed from TLB
system.cpu.dtb.flush_tlb                            0                       # Number of times complete TLB was flushed
system.cpu.dtb.flush_tlb_asid                       0                       # Number of times TLB was flushed by ASID
system.cpu.dtb.flush_tlb_mva                        0                       # Number of times TLB was flushed by MVA
system.cpu.dtb.flush_tlb_mva_asid                   0                       # Number of times TLB was flushed by MVA & ASID
system.cpu.dtb.hits                                 0                       # DTB hits
system.cpu.dtb.inst_accesses                        0                       # ITB inst accesses
system.cpu.dtb.inst_hits                            0                       # ITB inst hits
system.cpu.dtb.inst_misses                          0                       # ITB inst misses
system.cpu.dtb.misses                               0                       # DTB misses
system.cpu.dtb.perms_faults                         0                       # Number of TLB faults due to permissions restrictions
system.cpu.dtb.prefetch_faults                      0                       # Number of TLB faults due to prefetch
system.cpu.dtb.read_accesses                        0                       # DTB read accesses
system.cpu.dtb.read_hits                            0                       # DTB read hits
system.cpu.dtb.read_misses                          0                       # DTB read misses
system.cpu.dtb.stage2_mmu.stage2_tlb.accesses            0                       # DTB accesses
system.cpu.dtb.stage2_mmu.stage2_tlb.align_faults            0                       # Number of TLB faults due to alignment restrictions
system.cpu.dtb.stage2_mmu.stage2_tlb.domain_faults            0                       # Number of TLB faults due to domain restrictions
system.cpu.dtb.stage2_mmu.stage2_tlb.flush_entries            0                       # Number of entries that have been flushed from TLB
system.cpu.dtb.stage2_mmu.stage2_tlb.flush_tlb            0                       # Number of times complete TLB was flushed
system.cpu.dtb.stage2_mmu.stage2_tlb.flush_tlb_asid            0                       # Number of times TLB was flushed by ASID
system.cpu.dtb.stage2_mmu.stage2_tlb.flush_tlb_mva            0                       # Number of times TLB was flushed by MVA
system.cpu.dtb.stage2_mmu.stage2_tlb.flush_tlb_mva_asid            0                       # Number of times TLB was flushed by MVA & ASID
system.cpu.dtb.stage2_mmu.stage2_tlb.hits            0                       # DTB hits
system.cpu.dtb.stage2_mmu.stage2_tlb.inst_accesses            0                       # ITB inst accesses
system.cpu.dtb.stage2_mmu.stage2_tlb.inst_hits            0                       # ITB inst hits
system.cpu.dtb.stage2_mmu.stage2_tlb.inst_misses            0                       # ITB inst misses
system.cpu.dtb.stage2_mmu.stage2_tlb.misses            0                       # DTB misses
system.cpu.dtb.stage2_mmu.stage2_tlb.perms_faults            0                       # Number of TLB faults due to permissions restrictions
system.cpu.dtb.stage2_mmu.stage2_tlb.prefetch_faults            0                       # Number of TLB faults due to prefetch
system.cpu.dtb.stage2_mmu.stage2_tlb.read_accesses            0                       # DTB read accesses
system.cpu.dtb.stage2_mmu.stage2_tlb.read_hits            0                       # DTB read hits
system.cpu.dtb.stage2_mmu.stage2_tlb.read_misses            0                       # DTB read misses
system.cpu.dtb.stage2_mmu.stage2_tlb.walker.walkRequestOrigin_Requested::Data            0                       # Table walker requests started/completed, data/inst
system.cpu.dtb.stage2_mmu.stage2_tlb.walker.walkRequestOrigin_Requested::Inst            0                       # Table walker requests started/completed, data/inst
system.cpu.dtb.stage2_mmu.stage2_tlb.walker.walkRequestOrigin_Requested::total            0                       # Table walker requests started/completed, data/inst
system.cpu.dtb.stage2_mmu.stage2_tlb.walker.walkRequestOrigin_Completed::Data            0                       # Table walker requests started/completed, data/inst
system.cpu.dtb.stage2_mmu.stage2_tlb.walker.walkRequestOrigin_Completed::Inst            0                       # Table walker requests started/completed, data/inst
system.cpu.dtb.stage2_mmu.stage2_tlb.walker.walkRequestOrigin_Completed::total            0                       # Table walker requests started/completed, data/inst
system.cpu.dtb.stage2_mmu.stage2_tlb.walker.walkRequestOrigin::total            0                       # Table walker requests started/completed, data/inst
system.cpu.dtb.stage2_mmu.stage2_tlb.walker.walks            0                       # Table walker walks requested
system.cpu.dtb.stage2_mmu.stage2_tlb.write_accesses            0                       # DTB write accesses
system.cpu.dtb.stage2_mmu.stage2_tlb.write_hits            0                       # DTB write hits
system.cpu.dtb.stage2_mmu.stage2_tlb.write_misses            0                       # DTB write misses
system.cpu.dtb.walker.walkRequestOrigin_Requested::Data            0                       # Table walker requests started/completed, data/inst
system.cpu.dtb.walker.walkRequestOrigin_Requested::Inst            0                       # Table walker requests started/completed, data/inst
system.cpu.dtb.walker.walkRequestOrigin_Requested::total            0                       # Table walker requests started/completed, data/inst
system.cpu.dtb.walker.walkRequestOrigin_Completed::Data            0                       # Table walker requests started/completed, data/inst
system.cpu.dtb.walker.walkRequestOrigin_Completed::Inst            0                       # Table walker requests started/completed, data/inst
system.cpu.dtb.walker.walkRequestOrigin_Completed::total            0                       # Table walker requests started/completed, data/inst
system.cpu.dtb.walker.walkRequestOrigin::total            0                       # Table walker requests started/completed, data/inst
system.cpu.dtb.walker.walks                         0                       # Table walker walks requested
system.cpu.dtb.write_accesses                       0                       # DTB write accesses
system.cpu.dtb.write_hits                           0                       # DTB write hits
system.cpu.dtb.write_misses                         0                       # DTB write misses
system.cpu.fetch.Branches                      158086                       # Number of branches that fetch encountered
system.cpu.fetch.CacheLines                     43126                       # Number of cache lines fetched
system.cpu.fetch.Cycles                        200114                       # Number of cycles fetch has run and was not squashing or blocked
system.cpu.fetch.IcacheSquashes                   572                       # Number of outstanding Icache misses that were squashed
system.cpu.fetch.IcacheWaitRetryStallCycles           27                       # Number of stall cycles due to full MSHR
system.cpu.fetch.Insts                        1025962                       # Number of instructions fetch has processed
system.cpu.fetch.MiscStallCycles                    2                       # Number of cycles fetch has spent waiting on interrupts, or bad addresses, or out of MSHRs
system.cpu.fetch.SquashCycles                    2118                       # Number of cycles fetch has spent squashing
system.cpu.fetch.branchRate                  0.531508                       # Number of branch fetches per cycle
system.cpu.fetch.icacheStallCycles              53501                       # Number of cycles fetch is stalled on an Icache miss
system.cpu.fetch.predictedBranches             118425                       # Number of branches that fetch has predicted taken
system.cpu.fetch.rate                        3.449435                       # Number of inst fetches per cycle
system.cpu.fetch.rateDist::samples             254703                       # Number of instructions fetched each cycle (Total)
system.cpu.fetch.rateDist::mean              4.120340                       # Number of instructions fetched each cycle (Total)
system.cpu.fetch.rateDist::stdev             3.368401                       # Number of instructions fetched each cycle (Total)
system.cpu.fetch.rateDist::underflows               0      0.00%      0.00% # Number of instructions fetched each cycle (Total)
system.cpu.fetch.rateDist::0                    88545     34.76%     34.76% # Number of instructions fetched each cycle (Total)
system.cpu.fetch.rateDist::1                     9228      3.62%     38.39% # Number of instructions fetched each cycle (Total)
system.cpu.fetch.rateDist::2                     5837      2.29%     40.68% # Number of instructions fetched each cycle (Total)
system.cpu.fetch.rateDist::3                     5176      2.03%     42.71% # Number of instructions fetched each cycle (Total)
system.cpu.fetch.rateDist::4                     4226      1.66%     44.37% # Number of instructions fetched each cycle (Total)
system.cpu.fetch.rateDist::5                     5817      2.28%     46.65% # Number of instructions fetched each cycle (Total)
system.cpu.fetch.rateDist::6                    12554      4.93%     51.58% # Number of instructions fetched each cycle (Total)
system.cpu.fetch.rateDist::7                    94840     37.24%     88.82% # Number of instructions fetched each cycle (Total)
system.cpu.fetch.rateDist::8                    28480     11.18%    100.00% # Number of instructions fetched each cycle (Total)
system.cpu.fetch.rateDist::overflows                0      0.00%    100.00% # Number of instructions fetched each cycle (Total)
system.cpu.fetch.rateDist::min_value                0                       # Number of instructions fetched each cycle (Total)
system.cpu.fetch.rateDist::max_value                8                       # Number of instructions fetched each cycle (Total)
system.cpu.fetch.rateDist::total               254703                       # Number of instructions fetched each cycle (Total)
system.cpu.idleCycles                           42726                       # Total number of cycles that the CPU has spent unscheduled due to idling
system.cpu.iew.branchMispredicts                  939                       # Number of branch mispredicts detected at execute
system.cpu.iew.exec_branches                   154350                       # Number of branches executed
system.cpu.iew.exec_nop                           135                       # number of nop insts executed
system.cpu.iew.exec_rate                     3.464457                       # Inst execution rate
system.cpu.iew.exec_refs                       371251                       # number of memory reference insts executed
system.cpu.iew.exec_stores                     112947                       # Number of stores executed
system.cpu.iew.exec_swp                             0                       # number of swp insts executed
system.cpu.iew.iewBlockCycles                    2111                       # Number of cycles IEW is blocking
system.cpu.iew.iewDispLoadInsts                258575                       # Number of dispatched load instructions
system.cpu.iew.iewDispNonSpecInsts                 71                       # Number of dispatched non-speculative instructions
system.cpu.iew.iewDispSquashedInsts               193                       # Number of squashed instructions skipped by dispatch
system.cpu.iew.iewDispStoreInsts               114320                       # Number of dispatched store instructions
system.cpu.iew.iewDispatchedInsts             1036347                       # Number of instructions dispatched to IQ
system.cpu.iew.iewExecLoadInsts                258304                       # Number of load instructions executed
system.cpu.iew.iewExecSquashedInsts              1505                       # Number of squashed instructions skipped in execute
system.cpu.iew.iewExecutedInsts               1030430                       # Number of executed instructions
system.cpu.iew.iewIQFullEvents                      6                       # Number of times the IQ has become full, causing a stall
system.cpu.iew.iewIdleCycles                        0                       # Number of cycles IEW is idle
system.cpu.iew.iewLSQFullEvents                  1136                       # Number of times the LSQ has become full, causing a stall
system.cpu.iew.iewSquashCycles                    809                       # Number of cycles IEW is squashing
system.cpu.iew.iewUnblockCycles                  1142                       # Number of cycles IEW is unblocking
system.cpu.iew.lsq.thread0.blockedLoads             0                       # Number of blocked loads due to partial load-store forwarding
system.cpu.iew.lsq.thread0.cacheBlocked           525                       # Number of times an access to memory failed due to the cache being blocked
system.cpu.iew.lsq.thread0.forwLoads               79                       # Number of loads that had data forwarded from stores
system.cpu.iew.lsq.thread0.ignoredResponses            0                       # Number of memory responses ignored because the instruction is squashed
system.cpu.iew.lsq.thread0.invAddrLoads             0                       # Number of loads ignored due to an invalid address
system.cpu.iew.lsq.thread0.invAddrSwpfs             0                       # Number of software prefetches ignored due to an invalid address
system.cpu.iew.lsq.thread0.memOrderViolation           18                       # Number of memory ordering violations
system.cpu.iew.lsq.thread0.rescheduledLoads           77                       # Number of loads that were rescheduled
system.cpu.iew.lsq.thread0.squashedLoads         2496                       # Number of loads squashed
system.cpu.iew.lsq.thread0.squashedStores         2593                       # Number of stores squashed
system.cpu.iew.memOrderViolationEvents             18                       # Number of memory order violations
system.cpu.iew.predictedNotTakenIncorrect          782                       # Number of branches that were predicted not taken incorrectly
system.cpu.iew.predictedTakenIncorrect            157                       # Number of branches that were predicted taken incorrectly
system.cpu.iew.wb_consumers                   1285421                       # num instructions consuming a value
system.cpu.iew.wb_count                       1028614                       # cumulative count of insts written-back
system.cpu.iew.wb_fanout                     0.575873                       # average fanout of values written-back
system.cpu.iew.wb_producers                    740239                       # num instructions producing a value
system.cpu.iew.wb_rate                       3.458351                       # insts written-back per cycle
system.cpu.iew.wb_sent                        1029496                       # cumulative count of insts sent to commit
system.cpu.int_regfile_reads                  1295119                       # number of integer regfile reads
system.cpu.int_regfile_writes                  665695                       # number of integer regfile writes
system.cpu.ipc                               3.362147                       # IPC: Instructions Per Cycle
system.cpu.ipc_total                         3.362147                       # IPC: Total IPC of All Threads
system.cpu.iq.FU_type_0::No_OpClass                13      0.00%      0.00% # Type of FU issued
system.cpu.iq.FU_type_0::IntAlu                579303     56.14%     56.14% # Type of FU issued
system.cpu.iq.FU_type_0::IntMult                 6239      0.60%     56.74% # Type of FU issued
system.cpu.iq.FU_type_0::IntDiv                    10      0.00%     56.74% # Type of FU issued
system.cpu.iq.FU_type_0::FloatAdd                4094      0.40%     57.14% # Type of FU issued
system.cpu.iq.FU_type_0::FloatCmp               15848      1.54%     58.68% # Type of FU issued
system.cpu.iq.FU_type_0::FloatCvt                6163      0.60%     59.27% # Type of FU issued
system.cpu.iq.FU_type_0::FloatMult              21996      2.13%     61.40% # Type of FU issued
system.cpu.iq.FU_type_0::FloatMultAcc           21994      2.13%     63.54% # Type of FU issued
system.cpu.iq.FU_type_0::FloatDiv                  22      0.00%     63.54% # Type of FU issued
system.cpu.iq.FU_type_0::FloatMisc               2072      0.20%     63.74% # Type of FU issued
system.cpu.iq.FU_type_0::FloatSqrt                  0      0.00%     63.74% # Type of FU issued
system.cpu.iq.FU_type_0::SimdAdd                   43      0.00%     63.74% # Type of FU issued
system.cpu.iq.FU_type_0::SimdAddAcc                 0      0.00%     63.74% # Type of FU issued
system.cpu.iq.FU_type_0::SimdAlu                   51      0.00%     63.75% # Type of FU issued
system.cpu.iq.FU_type_0::SimdCmp                   52      0.01%     63.75% # Type of FU issued
system.cpu.iq.FU_type_0::SimdCvt                    0      0.00%     63.75% # Type of FU issued
system.cpu.iq.FU_type_0::SimdMisc                2086      0.20%     63.96% # Type of FU issued
system.cpu.iq.FU_type_0::SimdMult                   0      0.00%     63.96% # Type of FU issued
system.cpu.iq.FU_type_0::SimdMultAcc                0      0.00%     63.96% # Type of FU issued
system.cpu.iq.FU_type_0::SimdShift                  0      0.00%     63.96% # Type of FU issued
system.cpu.iq.FU_type_0::SimdShiftAcc               0      0.00%     63.96% # Type of FU issued
system.cpu.iq.FU_type_0::SimdDiv                    0      0.00%     63.96% # Type of FU issued
system.cpu.iq.FU_type_0::SimdSqrt                   0      0.00%     63.96% # Type of FU issued
system.cpu.iq.FU_type_0::SimdFloatAdd               0      0.00%     63.96% # Type of FU issued
system.cpu.iq.FU_type_0::SimdFloatAlu               0      0.00%     63.96% # Type of FU issued
system.cpu.iq.FU_type_0::SimdFloatCmp               0      0.00%     63.96% # Type of FU issued
system.cpu.iq.FU_type_0::SimdFloatCvt               0      0.00%     63.96% # Type of FU issued
system.cpu.iq.FU_type_0::SimdFloatDiv               0      0.00%     63.96% # Type of FU issued
system.cpu.iq.FU_type_0::SimdFloatMisc              0      0.00%     63.96% # Type of FU issued
system.cpu.iq.FU_type_0::SimdFloatMult              0      0.00%     63.96% # Type of FU issued
system.cpu.iq.FU_type_0::SimdFloatMultAcc            0      0.00%     63.96% # Type of FU issued
system.cpu.iq.FU_type_0::SimdFloatSqrt              0      0.00%     63.96% # Type of FU issued
system.cpu.iq.FU_type_0::SimdReduceAdd              0      0.00%     63.96% # Type of FU issued
system.cpu.iq.FU_type_0::SimdReduceAlu              0      0.00%     63.96% # Type of FU issued
system.cpu.iq.FU_type_0::SimdReduceCmp              0      0.00%     63.96% # Type of FU issued
system.cpu.iq.FU_type_0::SimdFloatReduceAdd            0      0.00%     63.96% # Type of FU issued
system.cpu.iq.FU_type_0::SimdFloatReduceCmp            0      0.00%     63.96% # Type of FU issued
system.cpu.iq.FU_type_0::SimdAes                    0      0.00%     63.96% # Type of FU issued
system.cpu.iq.FU_type_0::SimdAesMix                 0      0.00%     63.96% # Type of FU issued
system.cpu.iq.FU_type_0::SimdSha1Hash               0      0.00%     63.96% # Type of FU issued
system.cpu.iq.FU_type_0::SimdSha1Hash2              0      0.00%     63.96% # Type of FU issued
system.cpu.iq.FU_type_0::SimdSha256Hash             0      0.00%     63.96% # Type of FU issued
system.cpu.iq.FU_type_0::SimdSha256Hash2            0      0.00%     63.96% # Type of FU issued
system.cpu.iq.FU_type_0::SimdShaSigma2              0      0.00%     63.96% # Type of FU issued
system.cpu.iq.FU_type_0::SimdShaSigma3              0      0.00%     63.96% # Type of FU issued
system.cpu.iq.FU_type_0::SimdPredAlu                0      0.00%     63.96% # Type of FU issued
system.cpu.iq.FU_type_0::MemRead               258598     25.06%     89.01% # Type of FU issued
system.cpu.iq.FU_type_0::MemWrite              113362     10.99%    100.00% # Type of FU issued
system.cpu.iq.FU_type_0::FloatMemRead               0      0.00%    100.00% # Type of FU issued
system.cpu.iq.FU_type_0::FloatMemWrite              0      0.00%    100.00% # Type of FU issued
system.cpu.iq.FU_type_0::IprAccess                  0      0.00%    100.00% # Type of FU issued
system.cpu.iq.FU_type_0::InstPrefetch               0      0.00%    100.00% # Type of FU issued
system.cpu.iq.FU_type_0::total                1031946                       # Type of FU issued
system.cpu.iq.fp_alu_accesses                       0                       # Number of floating point alu accesses
system.cpu.iq.fp_inst_queue_reads                   0                       # Number of floating instruction queue reads
system.cpu.iq.fp_inst_queue_wakeup_accesses            0                       # Number of floating instruction queue wakeup accesses
system.cpu.iq.fp_inst_queue_writes                  0                       # Number of floating instruction queue writes
system.cpu.iq.fu_busy_cnt                        1349                       # FU busy when requested
system.cpu.iq.fu_busy_rate                   0.001307                       # FU busy rate (busy events/executed inst)
system.cpu.iq.fu_full::No_OpClass                   0      0.00%      0.00% # attempts to use FU when none available
system.cpu.iq.fu_full::IntAlu                     293     21.72%     21.72% # attempts to use FU when none available
system.cpu.iq.fu_full::IntMult                      0      0.00%     21.72% # attempts to use FU when none available
system.cpu.iq.fu_full::IntDiv                       0      0.00%     21.72% # attempts to use FU when none available
system.cpu.iq.fu_full::FloatAdd                     0      0.00%     21.72% # attempts to use FU when none available
system.cpu.iq.fu_full::FloatCmp                     0      0.00%     21.72% # attempts to use FU when none available
system.cpu.iq.fu_full::FloatCvt                     0      0.00%     21.72% # attempts to use FU when none available
system.cpu.iq.fu_full::FloatMult                  175     12.97%     34.69% # attempts to use FU when none available
system.cpu.iq.fu_full::FloatMultAcc                 5      0.37%     35.06% # attempts to use FU when none available
system.cpu.iq.fu_full::FloatDiv                     0      0.00%     35.06% # attempts to use FU when none available
system.cpu.iq.fu_full::FloatMisc                    2      0.15%     35.21% # attempts to use FU when none available
system.cpu.iq.fu_full::FloatSqrt                    0      0.00%     35.21% # attempts to use FU when none available
system.cpu.iq.fu_full::SimdAdd                      0      0.00%     35.21% # attempts to use FU when none available
system.cpu.iq.fu_full::SimdAddAcc                   0      0.00%     35.21% # attempts to use FU when none available
system.cpu.iq.fu_full::SimdAlu                      2      0.15%     35.36% # attempts to use FU when none available
system.cpu.iq.fu_full::SimdCmp                      4      0.30%     35.66% # attempts to use FU when none available
system.cpu.iq.fu_full::SimdCvt                      0      0.00%     35.66% # attempts to use FU when none available
system.cpu.iq.fu_full::SimdMisc                     0      0.00%     35.66% # attempts to use FU when none available
system.cpu.iq.fu_full::SimdMult                     0      0.00%     35.66% # attempts to use FU when none available
system.cpu.iq.fu_full::SimdMultAcc                  0      0.00%     35.66% # attempts to use FU when none available
system.cpu.iq.fu_full::SimdShift                    0      0.00%     35.66% # attempts to use FU when none available
system.cpu.iq.fu_full::SimdShiftAcc                 0      0.00%     35.66% # attempts to use FU when none available
system.cpu.iq.fu_full::SimdDiv                      0      0.00%     35.66% # attempts to use FU when none available
system.cpu.iq.fu_full::SimdSqrt                     0      0.00%     35.66% # attempts to use FU when none available
system.cpu.iq.fu_full::SimdFloatAdd                 0      0.00%     35.66% # attempts to use FU when none available
system.cpu.iq.fu_full::SimdFloatAlu                 0      0.00%     35.66% # attempts to use FU when none available
system.cpu.iq.fu_full::SimdFloatCmp                 0      0.00%     35.66% # attempts to use FU when none available
system.cpu.iq.fu_full::SimdFloatCvt                 0      0.00%     35.66% # attempts to use FU when none available
system.cpu.iq.fu_full::SimdFloatDiv                 0      0.00%     35.66% # attempts to use FU when none available
system.cpu.iq.fu_full::SimdFloatMisc                0      0.00%     35.66% # attempts to use FU when none available
system.cpu.iq.fu_full::SimdFloatMult                0      0.00%     35.66% # attempts to use FU when none available
system.cpu.iq.fu_full::SimdFloatMultAcc             0      0.00%     35.66% # attempts to use FU when none available
system.cpu.iq.fu_full::SimdFloatSqrt                0      0.00%     35.66% # attempts to use FU when none available
system.cpu.iq.fu_full::SimdReduceAdd                0      0.00%     35.66% # attempts to use FU when none available
system.cpu.iq.fu_full::SimdReduceAlu                0      0.00%     35.66% # attempts to use FU when none available
system.cpu.iq.fu_full::SimdReduceCmp                0      0.00%     35.66% # attempts to use FU when none available
system.cpu.iq.fu_full::SimdFloatReduceAdd            0      0.00%     35.66% # attempts to use FU when none available
system.cpu.iq.fu_full::SimdFloatReduceCmp            0      0.00%     35.66% # attempts to use FU when none available
system.cpu.iq.fu_full::SimdAes                      0      0.00%     35.66% # attempts to use FU when none available
system.cpu.iq.fu_full::SimdAesMix                   0      0.00%     35.66% # attempts to use FU when none available
system.cpu.iq.fu_full::SimdSha1Hash                 0      0.00%     35.66% # attempts to use FU when none available
system.cpu.iq.fu_full::SimdSha1Hash2                0      0.00%     35.66% # attempts to use FU when none available
system.cpu.iq.fu_full::SimdSha256Hash               0      0.00%     35.66% # attempts to use FU when none available
system.cpu.iq.fu_full::SimdSha256Hash2              0      0.00%     35.66% # attempts to use FU when none available
system.cpu.iq.fu_full::SimdShaSigma2                0      0.00%     35.66% # attempts to use FU when none available
system.cpu.iq.fu_full::SimdShaSigma3                0      0.00%     35.66% # attempts to use FU when none available
system.cpu.iq.fu_full::SimdPredAlu                  0      0.00%     35.66% # attempts to use FU when none available
system.cpu.iq.fu_full::MemRead                    539     39.96%     75.61% # attempts to use FU when none available
system.cpu.iq.fu_full::MemWrite                   329     24.39%    100.00% # attempts to use FU when none available
system.cpu.iq.fu_full::FloatMemRead                 0      0.00%    100.00% # attempts to use FU when none available
system.cpu.iq.fu_full::FloatMemWrite                0      0.00%    100.00% # attempts to use FU when none available
system.cpu.iq.fu_full::IprAccess                    0      0.00%    100.00% # attempts to use FU when none available
system.cpu.iq.fu_full::InstPrefetch                 0      0.00%    100.00% # attempts to use FU when none available
system.cpu.iq.int_alu_accesses                 921851                       # Number of integer alu accesses
system.cpu.iq.int_inst_queue_reads            2097490                       # Number of integer instruction queue reads
system.cpu.iq.int_inst_queue_wakeup_accesses       917686                       # Number of integer instruction queue wakeup accesses
system.cpu.iq.int_inst_queue_writes            940113                       # Number of integer instruction queue writes
system.cpu.iq.iqInstsAdded                    1036141                       # Number of instructions added to the IQ (excludes non-spec)
system.cpu.iq.iqInstsIssued                   1031946                       # Number of instructions issued
system.cpu.iq.iqNonSpecInstsAdded                  71                       # Number of non-speculative instructions added to the IQ
system.cpu.iq.iqSquashedInstsExamined           16349                       # Number of squashed instructions iterated over during squash; mainly for profiling
system.cpu.iq.iqSquashedInstsIssued               279                       # Number of squashed instructions issued
system.cpu.iq.iqSquashedNonSpecRemoved             15                       # Number of squashed non-spec instructions that were removed
system.cpu.iq.iqSquashedOperandsExamined        13342                       # Number of squashed operands that are examined and possibly removed from graph
system.cpu.iq.issued_per_cycle::samples        254703                       # Number of insts issued each cycle
system.cpu.iq.issued_per_cycle::mean         4.051566                       # Number of insts issued each cycle
system.cpu.iq.issued_per_cycle::stdev        2.815494                       # Number of insts issued each cycle
system.cpu.iq.issued_per_cycle::underflows            0      0.00%      0.00% # Number of insts issued each cycle
system.cpu.iq.issued_per_cycle::0               54624     21.45%     21.45% # Number of insts issued each cycle
system.cpu.iq.issued_per_cycle::1               13461      5.28%     26.73% # Number of insts issued each cycle
system.cpu.iq.issued_per_cycle::2               12555      4.93%     31.66% # Number of insts issued each cycle
system.cpu.iq.issued_per_cycle::3               29988     11.77%     43.43% # Number of insts issued each cycle
system.cpu.iq.issued_per_cycle::4               23967      9.41%     52.84% # Number of insts issued each cycle
system.cpu.iq.issued_per_cycle::5               12356      4.85%     57.70% # Number of insts issued each cycle
system.cpu.iq.issued_per_cycle::6               10872      4.27%     61.96% # Number of insts issued each cycle
system.cpu.iq.issued_per_cycle::7               94509     37.11%     99.07% # Number of insts issued each cycle
system.cpu.iq.issued_per_cycle::8                2371      0.93%    100.00% # Number of insts issued each cycle
system.cpu.iq.issued_per_cycle::overflows            0      0.00%    100.00% # Number of insts issued each cycle
system.cpu.iq.issued_per_cycle::min_value            0                       # Number of insts issued each cycle
system.cpu.iq.issued_per_cycle::max_value            8                       # Number of insts issued each cycle
system.cpu.iq.issued_per_cycle::total          254703                       # Number of insts issued each cycle
system.cpu.iq.rate                           3.469554                       # Inst issue rate
system.cpu.iq.vec_alu_accesses                 111431                       # Number of vector alu accesses
system.cpu.iq.vec_inst_queue_reads             222722                       # Number of vector instruction queue reads
system.cpu.iq.vec_inst_queue_wakeup_accesses       110928                       # Number of vector instruction queue wakeup accesses
system.cpu.iq.vec_inst_queue_writes            112464                       # Number of vector instruction queue writes
system.cpu.itb.accesses                             0                       # DTB accesses
system.cpu.itb.align_faults                         0                       # Number of TLB faults due to alignment restrictions
system.cpu.itb.domain_faults                        0                       # Number of TLB faults due to domain restrictions
system.cpu.itb.flush_entries                        0                       # Number of entries that have been flushed from TLB
system.cpu.itb.flush_tlb                            0                       # Number of times complete TLB was flushed
system.cpu.itb.flush_tlb_asid                       0                       # Number of times TLB was flushed by ASID
system.cpu.itb.flush_tlb_mva                        0                       # Number of times TLB was flushed by MVA
system.cpu.itb.flush_tlb_mva_asid                   0                       # Number of times TLB was flushed by MVA & ASID
system.cpu.itb.hits                                 0                       # DTB hits
system.cpu.itb.inst_accesses                        0                       # ITB inst accesses
system.cpu.itb.inst_hits                            0                       # ITB inst hits
system.cpu.itb.inst_misses                          0                       # ITB inst misses
system.cpu.itb.misses                               0                       # DTB misses
system.cpu.itb.perms_faults                         0                       # Number of TLB faults due to permissions restrictions
system.cpu.itb.prefetch_faults                      0                       # Number of TLB faults due to prefetch
system.cpu.itb.read_accesses                        0                       # DTB read accesses
system.cpu.itb.read_hits                            0                       # DTB read hits
system.cpu.itb.read_misses                          0                       # DTB read misses
system.cpu.itb.stage2_mmu.stage2_tlb.accesses            0                       # DTB accesses
system.cpu.itb.stage2_mmu.stage2_tlb.align_faults            0                       # Number of TLB faults due to alignment restrictions
system.cpu.itb.stage2_mmu.stage2_tlb.domain_faults            0                       # Number of TLB faults due to domain restrictions
system.cpu.itb.stage2_mmu.stage2_tlb.flush_entries            0                       # Number of entries that have been flushed from TLB
system.cpu.itb.stage2_mmu.stage2_tlb.flush_tlb            0                       # Number of times complete TLB was flushed
system.cpu.itb.stage2_mmu.stage2_tlb.flush_tlb_asid            0                       # Number of times TLB was flushed by ASID
system.cpu.itb.stage2_mmu.stage2_tlb.flush_tlb_mva            0                       # Number of times TLB was flushed by MVA
system.cpu.itb.stage2_mmu.stage2_tlb.flush_tlb_mva_asid            0                       # Number of times TLB was flushed by MVA & ASID
system.cpu.itb.stage2_mmu.stage2_tlb.hits            0                       # DTB hits
system.cpu.itb.stage2_mmu.stage2_tlb.inst_accesses            0                       # ITB inst accesses
system.cpu.itb.stage2_mmu.stage2_tlb.inst_hits            0                       # ITB inst hits
system.cpu.itb.stage2_mmu.stage2_tlb.inst_misses            0                       # ITB inst misses
system.cpu.itb.stage2_mmu.stage2_tlb.misses            0                       # DTB misses
system.cpu.itb.stage2_mmu.stage2_tlb.perms_faults            0                       # Number of TLB faults due to permissions restrictions
system.cpu.itb.stage2_mmu.stage2_tlb.prefetch_faults            0                       # Number of TLB faults due to prefetch
system.cpu.itb.stage2_mmu.stage2_tlb.read_accesses            0                       # DTB read accesses
system.cpu.itb.stage2_mmu.stage2_tlb.read_hits            0                       # DTB read hits
system.cpu.itb.stage2_mmu.stage2_tlb.read_misses            0                       # DTB read misses
system.cpu.itb.stage2_mmu.stage2_tlb.walker.walkRequestOrigin_Requested::Data            0                       # Table walker requests started/completed, data/inst
system.cpu.itb.stage2_mmu.stage2_tlb.walker.walkRequestOrigin_Requested::Inst            0                       # Table walker requests started/completed, data/inst
system.cpu.itb.stage2_mmu.stage2_tlb.walker.walkRequestOrigin_Requested::total            0                       # Table walker requests started/completed, data/inst
system.cpu.itb.stage2_mmu.stage2_tlb.walker.walkRequestOrigin_Completed::Data            0                       # Table walker requests started/completed, data/inst
system.cpu.itb.stage2_mmu.stage2_tlb.walker.walkRequestOrigin_Completed::Inst            0                       # Table walker requests started/completed, data/inst
system.cpu.itb.stage2_mmu.stage2_tlb.walker.walkRequestOrigin_Completed::total            0                       # Table walker requests started/completed, data/inst
system.cpu.itb.stage2_mmu.stage2_tlb.walker.walkRequestOrigin::total            0                       # Table walker requests started/completed, data/inst
system.cpu.itb.stage2_mmu.stage2_tlb.walker.walks            0                       # Table walker walks requested
system.cpu.itb.stage2_mmu.stage2_tlb.write_accesses            0                       # DTB write accesses
system.cpu.itb.stage2_mmu.stage2_tlb.write_hits            0                       # DTB write hits
system.cpu.itb.stage2_mmu.stage2_tlb.write_misses            0                       # DTB write misses
system.cpu.itb.walker.walkRequestOrigin_Requested::Data            0                       # Table walker requests started/completed, data/inst
system.cpu.itb.walker.walkRequestOrigin_Requested::Inst            0                       # Table walker requests started/completed, data/inst
system.cpu.itb.walker.walkRequestOrigin_Requested::total            0                       # Table walker requests started/completed, data/inst
system.cpu.itb.walker.walkRequestOrigin_Completed::Data            0                       # Table walker requests started/completed, data/inst
system.cpu.itb.walker.walkRequestOrigin_Completed::Inst            0                       # Table walker requests started/completed, data/inst
system.cpu.itb.walker.walkRequestOrigin_Completed::total            0                       # Table walker requests started/completed, data/inst
system.cpu.itb.walker.walkRequestOrigin::total            0                       # Table walker requests started/completed, data/inst
system.cpu.itb.walker.walks                         0                       # Table walker walks requested
system.cpu.itb.write_accesses                       0                       # DTB write accesses
system.cpu.itb.write_hits                           0                       # DTB write hits
system.cpu.itb.write_misses                         0                       # DTB write misses
system.cpu.memDep0.conflictingLoads              2054                       # Number of conflicting loads.
system.cpu.memDep0.conflictingStores             2071                       # Number of conflicting stores.
system.cpu.memDep0.insertedLoads               258575                       # Number of loads inserted to the mem dependence unit.
system.cpu.memDep0.insertedStores              114320                       # Number of stores inserted to the mem dependence unit.
system.cpu.misc_regfile_reads                  949295                       # number of misc regfile reads
system.cpu.misc_regfile_writes                  70292                       # number of misc regfile writes
system.cpu.numCycles                           297429                       # number of cpu cycles simulated
system.cpu.numWorkItemsCompleted                    0                       # number of work items this cpu completed
system.cpu.numWorkItemsStarted                      0                       # number of work items this cpu started
system.cpu.rename.BlockCycles                    3255                       # Number of cycles rename is blocking
system.cpu.rename.CommittedMaps               1206644                       # Number of HB maps that are committed
system.cpu.rename.IQFullEvents                     87                       # Number of times rename has blocked due to IQ full
system.cpu.rename.IdleCycles                    50278                       # Number of cycles rename is idle
system.cpu.rename.LQFullEvents                   1123                       # Number of times rename has blocked due to LQ full
system.cpu.rename.ROBFullEvents                     3                       # Number of times rename has blocked due to ROB full
system.cpu.rename.RenameLookups               2149613                       # Number of register rename lookups that rename has made
system.cpu.rename.RenamedInsts                1040108                       # Number of instructions processed by rename
system.cpu.rename.RenamedOperands             1226142                       # Number of destination operands rename has renamed
system.cpu.rename.RunCycles                    158871                       # Number of cycles rename is running
system.cpu.rename.SQFullEvents                  32889                       # Number of times rename has blocked due to SQ full
system.cpu.rename.SquashCycles                    809                       # Number of cycles rename is squashing
system.cpu.rename.UnblockCycles                 35463                       # Number of cycles rename is unblocking
system.cpu.rename.UndoneMaps                    19289                       # Number of HB maps that are undone due to squashing
system.cpu.rename.int_rename_lookups          1306786                       # Number of integer rename lookups
system.cpu.rename.serializeStallCycles           6027                       # count of cycles rename stalled for serializing inst
system.cpu.rename.serializingInsts                302                       # count of serializing insts renamed
system.cpu.rename.skidInsts                     16432                       # count of insts added to the skid buffer
system.cpu.rename.tempSerializingInsts             72                       # count of temporary serializing insts renamed
system.cpu.rename.vec_rename_lookups           172212                       # Number of vector rename lookups
system.cpu.rob.rob_reads                      1260176                       # The number of ROB reads
system.cpu.rob.rob_writes                     2074471                       # The number of ROB writes
system.cpu.timesIdled                             388                       # Number of times that the entire CPU went into an idle state and unscheduled itself
system.cpu.vec_regfile_reads                   171359                       # number of vector regfile reads
system.cpu.vec_regfile_writes                   94586                       # number of vector regfile writes
system.cpu.workload.numSyscalls                     7                       # Number of system calls
system.membus.snoop_filter.hit_multi_requests            0                       # Number of requests hitting in the snoop filter with multiple (>1) holders of the requested data.
system.membus.snoop_filter.hit_multi_snoops            0                       # Number of snoops hitting in the snoop filter with multiple (>1) holders of the requested data.
system.membus.snoop_filter.hit_single_requests            0                       # Number of requests hitting in the snoop filter with a single holder of the requested data.
system.membus.snoop_filter.hit_single_snoops            0                       # Number of snoops hitting in the snoop filter with a single holder of the requested data.
system.membus.snoop_filter.tot_requests          1858                       # Total number of requests made to the snoop filter.
system.membus.snoop_filter.tot_snoops               0                       # Total number of snoops made to the snoop filter.
system.tol2bus.snoop_filter.hit_multi_requests            0                       # Number of requests hitting in the snoop filter with multiple (>1) holders of the requested data.
system.tol2bus.snoop_filter.hit_multi_snoops            0                       # Number of snoops hitting in the snoop filter with multiple (>1) holders of the requested data.
system.tol2bus.snoop_filter.hit_single_requests            1                       # Number of requests hitting in the snoop filter with a single holder of the requested data.
system.tol2bus.snoop_filter.hit_single_snoops            0                       # Number of snoops hitting in the snoop filter with a single holder of the requested data.
system.tol2bus.snoop_filter.tot_requests         1859                       # Total number of requests made to the snoop filter.
system.tol2bus.snoop_filter.tot_snoops              0                       # Total number of snoops made to the snoop filter.
system.membus.trans_dist::ReadResp                614                       # Transaction distribution
system.membus.trans_dist::ReadExReq               698                       # Transaction distribution
system.membus.trans_dist::ReadExResp              698                       # Transaction distribution
system.membus.trans_dist::ReadSharedReq           614                       # Transaction distribution
system.membus.trans_dist::InvalidateReq           546                       # Transaction distribution
system.membus.pkt_count_system.l2.mem_side::system.mem_ctrls.port         3170                       # Packet count per connected master and slave (bytes)
system.membus.pkt_count::total                   3170                       # Packet count per connected master and slave (bytes)
system.membus.pkt_size_system.l2.mem_side::system.mem_ctrls.port        83968                       # Cumulative packet size per connected master and slave (bytes)
system.membus.pkt_size::total                   83968                       # Cumulative packet size per connected master and slave (bytes)
system.membus.snoops                                0                       # Total snoops (count)
system.membus.snoopTraffic                          0                       # Total snoop traffic (bytes)
system.membus.snoop_fanout::samples              1858                       # Request fanout histogram
system.membus.snoop_fanout::mean                    0                       # Request fanout histogram
system.membus.snoop_fanout::stdev                   0                       # Request fanout histogram
system.membus.snoop_fanout::underflows              0      0.00%      0.00% # Request fanout histogram
system.membus.snoop_fanout::0                    1858    100.00%    100.00% # Request fanout histogram
system.membus.snoop_fanout::1                       0      0.00%    100.00% # Request fanout histogram
system.membus.snoop_fanout::overflows               0      0.00%    100.00% # Request fanout histogram
system.membus.snoop_fanout::min_value               0                       # Request fanout histogram
system.membus.snoop_fanout::max_value               0                       # Request fanout histogram
system.membus.snoop_fanout::total                1858                       # Request fanout histogram
system.membus.reqLayer0.occupancy             2131000                       # Layer occupancy (ticks)
system.membus.reqLayer0.utilization               1.4                       # Layer utilization (%)
system.membus.respLayer1.occupancy            6921750                       # Layer occupancy (ticks)
system.membus.respLayer1.utilization              4.7                       # Layer utilization (%)
system.membus.power_state.pwrStateResidencyTicks::UNDEFINED    148714000                       # Cumulative time (in ticks) in various power states
system.tol2bus.trans_dist::ReadResp               615                       # Transaction distribution
system.tol2bus.trans_dist::ReadExReq              698                       # Transaction distribution
system.tol2bus.trans_dist::ReadExResp             698                       # Transaction distribution
system.tol2bus.trans_dist::ReadCleanReq           513                       # Transaction distribution
system.tol2bus.trans_dist::ReadSharedReq          102                       # Transaction distribution
system.tol2bus.trans_dist::InvalidateReq          546                       # Transaction distribution
system.tol2bus.trans_dist::InvalidateResp          546                       # Transaction distribution
system.tol2bus.pkt_count_system.cpu.icache.mem_side::system.l2.cpu_side         1026                       # Packet count per connected master and slave (bytes)
system.tol2bus.pkt_count_system.cpu.dcache.mem_side::system.l2.cpu_side         2692                       # Packet count per connected master and slave (bytes)
system.tol2bus.pkt_count::total                  3718                       # Packet count per connected master and slave (bytes)
system.tol2bus.pkt_size_system.cpu.icache.mem_side::system.l2.cpu_side        32832                       # Cumulative packet size per connected master and slave (bytes)
system.tol2bus.pkt_size_system.cpu.dcache.mem_side::system.l2.cpu_side        51200                       # Cumulative packet size per connected master and slave (bytes)
system.tol2bus.pkt_size::total                  84032                       # Cumulative packet size per connected master and slave (bytes)
system.tol2bus.snoops                               0                       # Total snoops (count)
system.tol2bus.snoopTraffic                         0                       # Total snoop traffic (bytes)
system.tol2bus.snoop_fanout::samples             1859                       # Request fanout histogram
system.tol2bus.snoop_fanout::mean            0.000538                       # Request fanout histogram
system.tol2bus.snoop_fanout::stdev           0.023193                       # Request fanout histogram
system.tol2bus.snoop_fanout::underflows             0      0.00%      0.00% # Request fanout histogram
system.tol2bus.snoop_fanout::0                   1858     99.95%     99.95% # Request fanout histogram
system.tol2bus.snoop_fanout::1                      1      0.05%    100.00% # Request fanout histogram
system.tol2bus.snoop_fanout::2                      0      0.00%    100.00% # Request fanout histogram
system.tol2bus.snoop_fanout::overflows              0      0.00%    100.00% # Request fanout histogram
system.tol2bus.snoop_fanout::min_value              0                       # Request fanout histogram
system.tol2bus.snoop_fanout::max_value              1                       # Request fanout histogram
system.tol2bus.snoop_fanout::total               1859                       # Request fanout histogram
system.tol2bus.reqLayer0.occupancy             929500                       # Layer occupancy (ticks)
system.tol2bus.reqLayer0.utilization              0.6                       # Layer utilization (%)
system.tol2bus.respLayer1.occupancy           1473000                       # Layer occupancy (ticks)
system.tol2bus.respLayer1.utilization             1.0                       # Layer utilization (%)
system.tol2bus.respLayer0.occupancy            769500                       # Layer occupancy (ticks)
system.tol2bus.respLayer0.utilization             0.5                       # Layer utilization (%)
system.tol2bus.power_state.pwrStateResidencyTicks::UNDEFINED    148714000                       # Cumulative time (in ticks) in various power states
system.voltage_domain.voltage                       1                       # Voltage in Volts
system.clk_domain.clock                          1000                       # Clock period in ticks
system.l2.demand_hits::.cpu.inst                    1                       # number of demand (read+write) hits
system.l2.demand_hits::total                        1                       # number of demand (read+write) hits
system.l2.overall_hits::.cpu.inst                   1                       # number of overall hits
system.l2.overall_hits::total                       1                       # number of overall hits
system.l2.demand_misses::.cpu.inst                512                       # number of demand (read+write) misses
system.l2.demand_misses::.cpu.data                800                       # number of demand (read+write) misses
system.l2.demand_misses::total                   1312                       # number of demand (read+write) misses
system.l2.overall_misses::.cpu.inst               512                       # number of overall misses
system.l2.overall_misses::.cpu.data               800                       # number of overall misses
system.l2.overall_misses::total                  1312                       # number of overall misses
system.l2.demand_miss_latency::.cpu.inst     40711500                       # number of demand (read+write) miss cycles
system.l2.demand_miss_latency::.cpu.data     61674500                       # number of demand (read+write) miss cycles
system.l2.demand_miss_latency::total        102386000                       # number of demand (read+write) miss cycles
system.l2.overall_miss_latency::.cpu.inst     40711500                       # number of overall miss cycles
system.l2.overall_miss_latency::.cpu.data     61674500                       # number of overall miss cycles
system.l2.overall_miss_latency::total       102386000                       # number of overall miss cycles
system.l2.demand_accesses::.cpu.inst              513                       # number of demand (read+write) accesses
system.l2.demand_accesses::.cpu.data              800                       # number of demand (read+write) accesses
system.l2.demand_accesses::total                 1313                       # number of demand (read+write) accesses
system.l2.overall_accesses::.cpu.inst             513                       # number of overall (read+write) accesses
system.l2.overall_accesses::.cpu.data             800                       # number of overall (read+write) accesses
system.l2.overall_accesses::total                1313                       # number of overall (read+write) accesses
system.l2.demand_miss_rate::.cpu.inst        0.998051                       # miss rate for demand accesses
system.l2.demand_miss_rate::.cpu.data               1                       # miss rate for demand accesses
system.l2.demand_miss_rate::total            0.999238                       # miss rate for demand accesses
system.l2.overall_miss_rate::.cpu.inst       0.998051                       # miss rate for overall accesses
system.l2.overall_miss_rate::.cpu.data              1                       # miss rate for overall accesses
system.l2.overall_miss_rate::total           0.999238                       # miss rate for overall accesses
system.l2.demand_avg_miss_latency::.cpu.inst 79514.648438                       # average overall miss latency
system.l2.demand_avg_miss_latency::.cpu.data 77093.125000                       # average overall miss latency
system.l2.demand_avg_miss_latency::total 78038.109756                       # average overall miss latency
system.l2.overall_avg_miss_latency::.cpu.inst 79514.648438                       # average overall miss latency
system.l2.overall_avg_miss_latency::.cpu.data 77093.125000                       # average overall miss latency
system.l2.overall_avg_miss_latency::total 78038.109756                       # average overall miss latency
system.l2.blocked_cycles::no_mshrs                  0                       # number of cycles access was blocked
system.l2.blocked_cycles::no_targets                0                       # number of cycles access was blocked
system.l2.blocked::no_mshrs                         0                       # number of cycles access was blocked
system.l2.blocked::no_targets                       0                       # number of cycles access was blocked
system.l2.avg_blocked_cycles::no_mshrs            nan                       # average number of cycles each access was blocked
system.l2.avg_blocked_cycles::no_targets          nan                       # average number of cycles each access was blocked
system.l2.demand_mshr_misses::.cpu.inst           512                       # number of demand (read+write) MSHR misses
system.l2.demand_mshr_misses::.cpu.data           800                       # number of demand (read+write) MSHR misses
system.l2.demand_mshr_misses::total              1312                       # number of demand (read+write) MSHR misses
system.l2.overall_mshr_misses::.cpu.inst          512                       # number of overall MSHR misses
system.l2.overall_mshr_misses::.cpu.data          800                       # number of overall MSHR misses
system.l2.overall_mshr_misses::total             1312                       # number of overall MSHR misses
system.l2.demand_mshr_miss_latency::.cpu.inst     35591001                       # number of demand (read+write) MSHR miss cycles
system.l2.demand_mshr_miss_latency::.cpu.data     53674001                       # number of demand (read+write) MSHR miss cycles
system.l2.demand_mshr_miss_latency::total     89265002                       # number of demand (read+write) MSHR miss cycles
system.l2.overall_mshr_miss_latency::.cpu.inst     35591001                       # number of overall MSHR miss cycles
system.l2.overall_mshr_miss_latency::.cpu.data     53674001                       # number of overall MSHR miss cycles
system.l2.overall_mshr_miss_latency::total     89265002                       # number of overall MSHR miss cycles
system.l2.demand_mshr_miss_rate::.cpu.inst     0.998051                       # mshr miss rate for demand accesses
system.l2.demand_mshr_miss_rate::.cpu.data            1                       # mshr miss rate for demand accesses
system.l2.demand_mshr_miss_rate::total       0.999238                       # mshr miss rate for demand accesses
system.l2.overall_mshr_miss_rate::.cpu.inst     0.998051                       # mshr miss rate for overall accesses
system.l2.overall_mshr_miss_rate::.cpu.data            1                       # mshr miss rate for overall accesses
system.l2.overall_mshr_miss_rate::total      0.999238                       # mshr miss rate for overall accesses
system.l2.demand_avg_mshr_miss_latency::.cpu.inst 69513.673828                       # average overall mshr miss latency
system.l2.demand_avg_mshr_miss_latency::.cpu.data 67092.501250                       # average overall mshr miss latency
system.l2.demand_avg_mshr_miss_latency::total 68037.349085                       # average overall mshr miss latency
system.l2.overall_avg_mshr_miss_latency::.cpu.inst 69513.673828                       # average overall mshr miss latency
system.l2.overall_avg_mshr_miss_latency::.cpu.data 67092.501250                       # average overall mshr miss latency
system.l2.overall_avg_mshr_miss_latency::total 68037.349085                       # average overall mshr miss latency
system.l2.replacements                              0                       # number of replacements
system.l2.ReadExReq_misses::.cpu.data             698                       # number of ReadExReq misses
system.l2.ReadExReq_misses::total                 698                       # number of ReadExReq misses
system.l2.ReadExReq_miss_latency::.cpu.data     52872000                       # number of ReadExReq miss cycles
system.l2.ReadExReq_miss_latency::total      52872000                       # number of ReadExReq miss cycles
system.l2.ReadExReq_accesses::.cpu.data           698                       # number of ReadExReq accesses(hits+misses)
system.l2.ReadExReq_accesses::total               698                       # number of ReadExReq accesses(hits+misses)
system.l2.ReadExReq_miss_rate::.cpu.data            1                       # miss rate for ReadExReq accesses
system.l2.ReadExReq_miss_rate::total                1                       # miss rate for ReadExReq accesses
system.l2.ReadExReq_avg_miss_latency::.cpu.data 75747.851003                       # average ReadExReq miss latency
system.l2.ReadExReq_avg_miss_latency::total 75747.851003                       # average ReadExReq miss latency
system.l2.ReadExReq_mshr_misses::.cpu.data          698                       # number of ReadExReq MSHR misses
system.l2.ReadExReq_mshr_misses::total            698                       # number of ReadExReq MSHR misses
system.l2.ReadExReq_mshr_miss_latency::.cpu.data     45891501                       # number of ReadExReq MSHR miss cycles
system.l2.ReadExReq_mshr_miss_latency::total     45891501                       # number of ReadExReq MSHR miss cycles
system.l2.ReadExReq_mshr_miss_rate::.cpu.data            1                       # mshr miss rate for ReadExReq accesses
system.l2.ReadExReq_mshr_miss_rate::total            1                       # mshr miss rate for ReadExReq accesses
system.l2.ReadExReq_avg_mshr_miss_latency::.cpu.data 65747.136103                       # average ReadExReq mshr miss latency
system.l2.ReadExReq_avg_mshr_miss_latency::total 65747.136103                       # average ReadExReq mshr miss latency
system.l2.ReadCleanReq_hits::.cpu.inst              1                       # number of ReadCleanReq hits
system.l2.ReadCleanReq_hits::total                  1                       # number of ReadCleanReq hits
system.l2.ReadCleanReq_misses::.cpu.inst          512                       # number of ReadCleanReq misses
system.l2.ReadCleanReq_misses::total              512                       # number of ReadCleanReq misses
system.l2.ReadCleanReq_miss_latency::.cpu.inst     40711500                       # number of ReadCleanReq miss cycles
system.l2.ReadCleanReq_miss_latency::total     40711500                       # number of ReadCleanReq miss cycles
system.l2.ReadCleanReq_accesses::.cpu.inst          513                       # number of ReadCleanReq accesses(hits+misses)
system.l2.ReadCleanReq_accesses::total            513                       # number of ReadCleanReq accesses(hits+misses)
system.l2.ReadCleanReq_miss_rate::.cpu.inst     0.998051                       # miss rate for ReadCleanReq accesses
system.l2.ReadCleanReq_miss_rate::total      0.998051                       # miss rate for ReadCleanReq accesses
system.l2.ReadCleanReq_avg_miss_latency::.cpu.inst 79514.648438                       # average ReadCleanReq miss latency
system.l2.ReadCleanReq_avg_miss_latency::total 79514.648438                       # average ReadCleanReq miss latency
system.l2.ReadCleanReq_mshr_misses::.cpu.inst          512                       # number of ReadCleanReq MSHR misses
system.l2.ReadCleanReq_mshr_misses::total          512                       # number of ReadCleanReq MSHR misses
system.l2.ReadCleanReq_mshr_miss_latency::.cpu.inst     35591001                       # number of ReadCleanReq MSHR miss cycles
system.l2.ReadCleanReq_mshr_miss_latency::total     35591001                       # number of ReadCleanReq MSHR miss cycles
system.l2.ReadCleanReq_mshr_miss_rate::.cpu.inst     0.998051                       # mshr miss rate for ReadCleanReq accesses
system.l2.ReadCleanReq_mshr_miss_rate::total     0.998051                       # mshr miss rate for ReadCleanReq accesses
system.l2.ReadCleanReq_avg_mshr_miss_latency::.cpu.inst 69513.673828                       # average ReadCleanReq mshr miss latency
system.l2.ReadCleanReq_avg_mshr_miss_latency::total 69513.673828                       # average ReadCleanReq mshr miss latency
system.l2.ReadSharedReq_misses::.cpu.data          102                       # number of ReadSharedReq misses
system.l2.ReadSharedReq_misses::total             102                       # number of ReadSharedReq misses
system.l2.ReadSharedReq_miss_latency::.cpu.data      8802500                       # number of ReadSharedReq miss cycles
system.l2.ReadSharedReq_miss_latency::total      8802500                       # number of ReadSharedReq miss cycles
system.l2.ReadSharedReq_accesses::.cpu.data          102                       # number of ReadSharedReq accesses(hits+misses)
system.l2.ReadSharedReq_accesses::total           102                       # number of ReadSharedReq accesses(hits+misses)
system.l2.ReadSharedReq_miss_rate::.cpu.data            1                       # miss rate for ReadSharedReq accesses
system.l2.ReadSharedReq_miss_rate::total            1                       # miss rate for ReadSharedReq accesses
system.l2.ReadSharedReq_avg_miss_latency::.cpu.data 86299.019608                       # average ReadSharedReq miss latency
system.l2.ReadSharedReq_avg_miss_latency::total 86299.019608                       # average ReadSharedReq miss latency
system.l2.ReadSharedReq_mshr_misses::.cpu.data          102                       # number of ReadSharedReq MSHR misses
system.l2.ReadSharedReq_mshr_misses::total          102                       # number of ReadSharedReq MSHR misses
system.l2.ReadSharedReq_mshr_miss_latency::.cpu.data      7782500                       # number of ReadSharedReq MSHR miss cycles
system.l2.ReadSharedReq_mshr_miss_latency::total      7782500                       # number of ReadSharedReq MSHR miss cycles
[...]
system.cpu.icache.tags.age_task_id_blocks_1024::2          480                       # Occupied blocks per task id
system.cpu.icache.tags.occ_task_id_percent::1024     0.125244                       # Percentage of cache occupancy per task id
system.cpu.icache.tags.tag_accesses            173017                       # Number of tag accesses
system.cpu.icache.tags.data_accesses           173017                       # Number of data accesses
system.cpu.icache.tags.power_state.pwrStateResidencyTicks::UNDEFINED    148714000                       # Cumulative time (in ticks) in various power states
system.cpu.dtb.walker.power_state.pwrStateResidencyTicks::UNDEFINED    148714000                       # Cumulative time (in ticks) in various power states
system.cpu.dtb.stage2_mmu.stage2_tlb.walker.power_state.pwrStateResidencyTicks::UNDEFINED    148714000                       # Cumulative time (in ticks) in various power states
system.cpu.itb.walker.power_state.pwrStateResidencyTicks::UNDEFINED    148714000                       # Cumulative time (in ticks) in various power states
system.cpu.itb.stage2_mmu.stage2_tlb.walker.power_state.pwrStateResidencyTicks::UNDEFINED    148714000                       # Cumulative time (in ticks) in various power states
system.cpu.dcache.demand_hits::.cpu.data       361544                       # number of demand (read+write) hits
system.cpu.dcache.demand_hits::total           361544                       # number of demand (read+write) hits
system.cpu.dcache.overall_hits::.cpu.data       361567                       # number of overall hits
system.cpu.dcache.overall_hits::total          361567                       # number of overall hits
system.cpu.dcache.demand_misses::.cpu.data         7941                       # number of demand (read+write) misses
system.cpu.dcache.demand_misses::total           7941                       # number of demand (read+write) misses
system.cpu.dcache.overall_misses::.cpu.data         7943                       # number of overall misses
system.cpu.dcache.overall_misses::total          7943                       # number of overall misses
system.cpu.dcache.demand_miss_latency::.cpu.data    528713484                       # number of demand (read+write) miss cycles
system.cpu.dcache.demand_miss_latency::total    528713484                       # number of demand (read+write) miss cycles
system.cpu.dcache.overall_miss_latency::.cpu.data    528713484                       # number of overall miss cycles
system.cpu.dcache.overall_miss_latency::total    528713484                       # number of overall miss cycles
system.cpu.dcache.demand_accesses::.cpu.data       369485                       # number of demand (read+write) accesses
system.cpu.dcache.demand_accesses::total       369485                       # number of demand (read+write) accesses
system.cpu.dcache.overall_accesses::.cpu.data       369510                       # number of overall (read+write) accesses
system.cpu.dcache.overall_accesses::total       369510                       # number of overall (read+write) accesses
system.cpu.dcache.demand_miss_rate::.cpu.data     0.021492                       # miss rate for demand accesses
system.cpu.dcache.demand_miss_rate::total     0.021492                       # miss rate for demand accesses
system.cpu.dcache.overall_miss_rate::.cpu.data     0.021496                       # miss rate for overall accesses
system.cpu.dcache.overall_miss_rate::total     0.021496                       # miss rate for overall accesses
system.cpu.dcache.demand_avg_miss_latency::.cpu.data 66580.214583                       # average overall miss latency
system.cpu.dcache.demand_avg_miss_latency::total 66580.214583                       # average overall miss latency
system.cpu.dcache.overall_avg_miss_latency::.cpu.data 66563.450082                       # average overall miss latency
system.cpu.dcache.overall_avg_miss_latency::total 66563.450082                       # average overall miss latency
system.cpu.dcache.blocked_cycles::no_mshrs        11834                       # number of cycles access was blocked
system.cpu.dcache.blocked_cycles::no_targets            0                       # number of cycles access was blocked
system.cpu.dcache.blocked::no_mshrs               616                       # number of cycles access was blocked
system.cpu.dcache.blocked::no_targets               0                       # number of cycles access was blocked
system.cpu.dcache.avg_blocked_cycles::no_mshrs    19.211039                       # average number of cycles each access was blocked
system.cpu.dcache.avg_blocked_cycles::no_targets          nan                       # average number of cycles each access was blocked
system.cpu.dcache.demand_mshr_hits::.cpu.data         6597                       # number of demand (read+write) MSHR hits
system.cpu.dcache.demand_mshr_hits::total         6597                       # number of demand (read+write) MSHR hits
system.cpu.dcache.overall_mshr_hits::.cpu.data         6597                       # number of overall MSHR hits
system.cpu.dcache.overall_mshr_hits::total         6597                       # number of overall MSHR hits
system.cpu.dcache.demand_mshr_misses::.cpu.data         1344                       # number of demand (read+write) MSHR misses
system.cpu.dcache.demand_mshr_misses::total         1344                       # number of demand (read+write) MSHR misses
system.cpu.dcache.overall_mshr_misses::.cpu.data         1346                       # number of overall MSHR misses
system.cpu.dcache.overall_mshr_misses::total         1346                       # number of overall MSHR misses
system.cpu.dcache.demand_mshr_miss_latency::.cpu.data     79638555                       # number of demand (read+write) MSHR miss cycles
system.cpu.dcache.demand_mshr_miss_latency::total     79638555                       # number of demand (read+write) MSHR miss cycles
system.cpu.dcache.overall_mshr_miss_latency::.cpu.data     79801055                       # number of overall MSHR miss cycles
system.cpu.dcache.overall_mshr_miss_latency::total     79801055                       # number of overall MSHR miss cycles
system.cpu.dcache.demand_mshr_miss_rate::.cpu.data     0.003637                       # mshr miss rate for demand accesses
system.cpu.dcache.demand_mshr_miss_rate::total     0.003637                       # mshr miss rate for demand accesses
system.cpu.dcache.overall_mshr_miss_rate::.cpu.data     0.003643                       # mshr miss rate for overall accesses
system.cpu.dcache.overall_mshr_miss_rate::total     0.003643                       # mshr miss rate for overall accesses
system.cpu.dcache.demand_avg_mshr_miss_latency::.cpu.data 59254.877232                       # average overall mshr miss latency
system.cpu.dcache.demand_avg_mshr_miss_latency::total 59254.877232                       # average overall mshr miss latency
system.cpu.dcache.overall_avg_mshr_miss_latency::.cpu.data 59287.559435                       # average overall mshr miss latency
system.cpu.dcache.overall_avg_mshr_miss_latency::total 59287.559435                       # average overall mshr miss latency
system.cpu.dcache.replacements                      0                       # number of replacements
system.cpu.dcache.ReadReq_hits::.cpu.data       257568                       # number of ReadReq hits
system.cpu.dcache.ReadReq_hits::total          257568                       # number of ReadReq hits
system.cpu.dcache.ReadReq_misses::.cpu.data          235                       # number of ReadReq misses
system.cpu.dcache.ReadReq_misses::total           235                       # number of ReadReq misses
system.cpu.dcache.ReadReq_miss_latency::.cpu.data     16875500                       # number of ReadReq miss cycles
system.cpu.dcache.ReadReq_miss_latency::total     16875500                       # number of ReadReq miss cycles
system.cpu.dcache.ReadReq_accesses::.cpu.data       257803                       # number of ReadReq accesses(hits+misses)
system.cpu.dcache.ReadReq_accesses::total       257803                       # number of ReadReq accesses(hits+misses)
system.cpu.dcache.ReadReq_miss_rate::.cpu.data     0.000912                       # miss rate for ReadReq accesses
system.cpu.dcache.ReadReq_miss_rate::total     0.000912                       # miss rate for ReadReq accesses
system.cpu.dcache.ReadReq_avg_miss_latency::.cpu.data 71810.638298                       # average ReadReq miss latency
system.cpu.dcache.ReadReq_avg_miss_latency::total 71810.638298                       # average ReadReq miss latency
system.cpu.dcache.ReadReq_mshr_hits::.cpu.data          135                       # number of ReadReq MSHR hits
system.cpu.dcache.ReadReq_mshr_hits::total          135                       # number of ReadReq MSHR hits
system.cpu.dcache.ReadReq_mshr_misses::.cpu.data          100                       # number of ReadReq MSHR misses
system.cpu.dcache.ReadReq_mshr_misses::total          100                       # number of ReadReq MSHR misses
system.cpu.dcache.ReadReq_mshr_miss_latency::.cpu.data      8795500                       # number of ReadReq MSHR miss cycles
system.cpu.dcache.ReadReq_mshr_miss_latency::total      8795500                       # number of ReadReq MSHR miss cycles
system.cpu.dcache.ReadReq_mshr_miss_rate::.cpu.data     0.000388                       # mshr miss rate for ReadReq accesses
system.cpu.dcache.ReadReq_mshr_miss_rate::total     0.000388                       # mshr miss rate for ReadReq accesses
system.cpu.dcache.ReadReq_avg_mshr_miss_latency::.cpu.data        87955                       # average ReadReq mshr miss latency
system.cpu.dcache.ReadReq_avg_mshr_miss_latency::total        87955                       # average ReadReq mshr miss latency
system.cpu.dcache.WriteReq_hits::.cpu.data       103957                       # number of WriteReq hits
system.cpu.dcache.WriteReq_hits::total         103957                       # number of WriteReq hits
system.cpu.dcache.WriteReq_misses::.cpu.data         7161                       # number of WriteReq misses
system.cpu.dcache.WriteReq_misses::total         7161                       # number of WriteReq misses
system.cpu.dcache.WriteReq_miss_latency::.cpu.data    494403925                       # number of WriteReq miss cycles
system.cpu.dcache.WriteReq_miss_latency::total    494403925                       # number of WriteReq miss cycles
system.cpu.dcache.WriteReq_accesses::.cpu.data       111118                       # number of WriteReq accesses(hits+misses)
system.cpu.dcache.WriteReq_accesses::total       111118                       # number of WriteReq accesses(hits+misses)
system.cpu.dcache.WriteReq_miss_rate::.cpu.data     0.064445                       # miss rate for WriteReq accesses
system.cpu.dcache.WriteReq_miss_rate::total     0.064445                       # miss rate for WriteReq accesses
system.cpu.dcache.WriteReq_avg_miss_latency::.cpu.data 69041.184890                       # average WriteReq miss latency
system.cpu.dcache.WriteReq_avg_miss_latency::total 69041.184890                       # average WriteReq miss latency
system.cpu.dcache.WriteReq_mshr_hits::.cpu.data         6462                       # number of WriteReq MSHR hits
system.cpu.dcache.WriteReq_mshr_hits::total         6462                       # number of WriteReq MSHR hits
system.cpu.dcache.WriteReq_mshr_misses::.cpu.data          699                       # number of WriteReq MSHR misses
system.cpu.dcache.WriteReq_mshr_misses::total          699                       # number of WriteReq MSHR misses
system.cpu.dcache.WriteReq_mshr_miss_latency::.cpu.data     53953996                       # number of WriteReq MSHR miss cycles
system.cpu.dcache.WriteReq_mshr_miss_latency::total     53953996                       # number of WriteReq MSHR miss cycles
system.cpu.dcache.WriteReq_mshr_miss_rate::.cpu.data     0.006291                       # mshr miss rate for WriteReq accesses
system.cpu.dcache.WriteReq_mshr_miss_rate::total     0.006291                       # mshr miss rate for WriteReq accesses
system.cpu.dcache.WriteReq_avg_mshr_miss_latency::.cpu.data 77187.404864                       # average WriteReq mshr miss latency
system.cpu.dcache.WriteReq_avg_mshr_miss_latency::total 77187.404864                       # average WriteReq mshr miss latency
system.cpu.dcache.SoftPFReq_hits::.cpu.data           23                       # number of SoftPFReq hits
system.cpu.dcache.SoftPFReq_hits::total            23                       # number of SoftPFReq hits
system.cpu.dcache.SoftPFReq_misses::.cpu.data            2                       # number of SoftPFReq misses
system.cpu.dcache.SoftPFReq_misses::total            2                       # number of SoftPFReq misses
system.cpu.dcache.SoftPFReq_accesses::.cpu.data           25                       # number of SoftPFReq accesses(hits+misses)
system.cpu.dcache.SoftPFReq_accesses::total           25                       # number of SoftPFReq accesses(hits+misses)
system.cpu.dcache.SoftPFReq_miss_rate::.cpu.data     0.080000                       # miss rate for SoftPFReq accesses
system.cpu.dcache.SoftPFReq_miss_rate::total     0.080000                       # miss rate for SoftPFReq accesses
system.cpu.dcache.SoftPFReq_mshr_misses::.cpu.data            2                       # number of SoftPFReq MSHR misses
system.cpu.dcache.SoftPFReq_mshr_misses::total            2                       # number of SoftPFReq MSHR misses
system.cpu.dcache.SoftPFReq_mshr_miss_latency::.cpu.data       162500                       # number of SoftPFReq MSHR miss cycles
system.cpu.dcache.SoftPFReq_mshr_miss_latency::total       162500                       # number of SoftPFReq MSHR miss cycles
system.cpu.dcache.SoftPFReq_mshr_miss_rate::.cpu.data     0.080000                       # mshr miss rate for SoftPFReq accesses
system.cpu.dcache.SoftPFReq_mshr_miss_rate::total     0.080000                       # mshr miss rate for SoftPFReq accesses
system.cpu.dcache.SoftPFReq_avg_mshr_miss_latency::.cpu.data        81250                       # average SoftPFReq mshr miss latency
system.cpu.dcache.SoftPFReq_avg_mshr_miss_latency::total        81250                       # average SoftPFReq mshr miss latency
system.cpu.dcache.WriteLineReq_hits::.cpu.data           19                       # number of WriteLineReq hits
system.cpu.dcache.WriteLineReq_hits::total           19                       # number of WriteLineReq hits
system.cpu.dcache.WriteLineReq_misses::.cpu.data          545                       # number of WriteLineReq misses
system.cpu.dcache.WriteLineReq_misses::total          545                       # number of WriteLineReq misses
system.cpu.dcache.WriteLineReq_miss_latency::.cpu.data     17434059                       # number of WriteLineReq miss cycles
system.cpu.dcache.WriteLineReq_miss_latency::total     17434059                       # number of WriteLineReq miss cycles
system.cpu.dcache.WriteLineReq_accesses::.cpu.data          564                       # number of WriteLineReq accesses(hits+misses)
system.cpu.dcache.WriteLineReq_accesses::total          564                       # number of WriteLineReq accesses(hits+misses)
system.cpu.dcache.WriteLineReq_miss_rate::.cpu.data     0.966312                       # miss rate for WriteLineReq accesses
system.cpu.dcache.WriteLineReq_miss_rate::total     0.966312                       # miss rate for WriteLineReq accesses
system.cpu.dcache.WriteLineReq_avg_miss_latency::.cpu.data 31989.099083                       # average WriteLineReq miss latency
system.cpu.dcache.WriteLineReq_avg_miss_latency::total 31989.099083                       # average WriteLineReq miss latency
system.cpu.dcache.WriteLineReq_mshr_misses::.cpu.data          545                       # number of WriteLineReq MSHR misses
system.cpu.dcache.WriteLineReq_mshr_misses::total          545                       # number of WriteLineReq MSHR misses
system.cpu.dcache.WriteLineReq_mshr_miss_latency::.cpu.data     16889059                       # number of WriteLineReq MSHR miss cycles
system.cpu.dcache.WriteLineReq_mshr_miss_latency::total     16889059                       # number of WriteLineReq MSHR miss cycles
system.cpu.dcache.WriteLineReq_mshr_miss_rate::.cpu.data     0.966312                       # mshr miss rate for WriteLineReq accesses
system.cpu.dcache.WriteLineReq_mshr_miss_rate::total     0.966312                       # mshr miss rate for WriteLineReq accesses
system.cpu.dcache.WriteLineReq_avg_mshr_miss_latency::.cpu.data 30989.099083                       # average WriteLineReq mshr miss latency
system.cpu.dcache.WriteLineReq_avg_mshr_miss_latency::total 30989.099083                       # average WriteLineReq mshr miss latency
system.cpu.dcache.LoadLockedReq_hits::.cpu.data           54                       # number of LoadLockedReq hits
system.cpu.dcache.LoadLockedReq_hits::total           54                       # number of LoadLockedReq hits
system.cpu.dcache.LoadLockedReq_accesses::.cpu.data           54                       # number of LoadLockedReq accesses(hits+misses)
system.cpu.dcache.LoadLockedReq_accesses::total           54                       # number of LoadLockedReq accesses(hits+misses)
system.cpu.dcache.StoreCondReq_hits::.cpu.data           48                       # number of StoreCondReq hits
system.cpu.dcache.StoreCondReq_hits::total           48                       # number of StoreCondReq hits
system.cpu.dcache.StoreCondReq_accesses::.cpu.data           48                       # number of StoreCondReq accesses(hits+misses)
system.cpu.dcache.StoreCondReq_accesses::total           48                       # number of StoreCondReq accesses(hits+misses)
system.cpu.dcache.power_state.pwrStateResidencyTicks::UNDEFINED    148714000                       # Cumulative time (in ticks) in various power states
system.cpu.dcache.tags.tagsinuse           783.900894                       # Cycle average of tags in use
system.cpu.dcache.tags.total_refs              363015                       # Total number of references to valid blocks.
system.cpu.dcache.tags.sampled_refs              1346                       # Sample count of references to valid blocks.
system.cpu.dcache.tags.avg_refs            269.699108                       # Average number of references to valid blocks.
system.cpu.dcache.tags.warmup_cycle            176500                       # Cycle when the warmup percentage was hit.
system.cpu.dcache.tags.occ_blocks::.cpu.data   783.900894                       # Average occupied blocks per requestor
system.cpu.dcache.tags.occ_percent::.cpu.data     0.191382                       # Average percentage of cache occupancy
system.cpu.dcache.tags.occ_percent::total     0.191382                       # Average percentage of cache occupancy
system.cpu.dcache.tags.occ_task_id_blocks::1024         1346                       # Occupied blocks per task id
system.cpu.dcache.tags.age_task_id_blocks_1024::1          611                       # Occupied blocks per task id
system.cpu.dcache.tags.age_task_id_blocks_1024::2          735                       # Occupied blocks per task id
system.cpu.dcache.tags.occ_task_id_percent::1024     0.328613                       # Percentage of cache occupancy per task id
system.cpu.dcache.tags.tag_accesses           2958242                       # Number of tag accesses
system.cpu.dcache.tags.data_accesses          2958242                       # Number of data accesses
system.cpu.dcache.tags.power_state.pwrStateResidencyTicks::UNDEFINED    148714000                       # Cumulative time (in ticks) in various power states
system.cpu.power_state.pwrStateResidencyTicks::ON    148714000                       # Cumulative time (in ticks) in various power states

---------- End Simulation Statistics   ----------
