
---------- Begin Simulation Statistics ----------
final_tick                                31115648500                       # Number of ticks from beginning of simulation (restored from checkpoints and never reset)
host_inst_rate                                 252372                       # Simulator instruction rate (inst/s)
host_mem_usage                                 848396                       # Number of bytes of host memory used
host_op_rate                                   256169                       # Simulator op (including micro ops) rate (op/s)
host_seconds                                  1066.72                       # Real time elapsed on the host
host_tick_rate                               29169467                       # Simulator tick rate (ticks/s)
sim_freq                                 1000000000000                       # Frequency of simulated ticks
sim_insts                                   269210254                       # Number of instructions simulated
sim_ops                                     273260045                       # Number of ops (including micro ops) simulated
sim_seconds                                  0.031116                       # Number of seconds simulated
sim_ticks                                 31115648500                       # Number of ticks simulated
system.cpu.branchPred.BTBCorrect                    0                       # Number of correct BTB predictions (this stat may not work properly.
system.cpu.branchPred.BTBHitPct             99.993007                       # BTB Hit Percentage
system.cpu.branchPred.BTBHits                36317759                       # Number of BTB hits
system.cpu.branchPred.BTBLookups             36320299                       # Number of BTB lookups
system.cpu.branchPred.RASInCorrect                  0                       # Number of incorrect RAS predictions.
system.cpu.branchPred.condIncorrect            203936                       # Number of conditional branches incorrect
system.cpu.branchPred.condPredicted          55599260                       # Number of conditional branches predicted
system.cpu.branchPred.indirectHits                 88                       # Number of indirect target hits.
system.cpu.branchPred.indirectLookups             493                       # Number of indirect predictor lookups.
system.cpu.branchPred.indirectMisses              405                       # Number of indirect misses.
system.cpu.branchPred.lookups                56259674                       # Number of BP lookups
system.cpu.branchPred.usedRAS                  297124                       # Number of times the RAS was used to get a target.
system.cpu.branchPredindirectMispredicted           97                       # Number of mispredicted indirect branches.
system.cpu.cc_regfile_reads                 156400434                       # number of cc regfile reads
system.cpu.cc_regfile_writes                157216685                       # number of cc regfile writes
system.cpu.commit.amos                              0                       # Number of atomic instructions committed
system.cpu.commit.branchMispredicts            203394                       # The number of times a branch was mispredicted
system.cpu.commit.branches                   52425271                       # Number of branches committed
system.cpu.commit.bw_lim_events              23751521                       # number cycles where commit BW limit reached
system.cpu.commit.commitNonSpecStalls             193                       # The number of times commit has been forced to stall to communicate backwards
system.cpu.commit.commitSquashedInsts        10243891                       # The number of squashed insts skipped by commit
system.cpu.commit.committedInsts            269210736                       # Number of instructions committed
system.cpu.commit.committedOps              273260527                       # Number of ops (including micro ops) committed
system.cpu.commit.committed_per_cycle::samples     60792320                       # Number of insts commited each cycle
system.cpu.commit.committed_per_cycle::mean     4.494984                       # Number of insts commited each cycle
system.cpu.commit.committed_per_cycle::stdev     3.310388                       # Number of insts commited each cycle
system.cpu.commit.committed_per_cycle::underflows            0      0.00%      0.00% # Number of insts commited each cycle
system.cpu.commit.committed_per_cycle::0      5165738      8.50%      8.50% # Number of insts commited each cycle
system.cpu.commit.committed_per_cycle::1     14538321     23.91%     32.41% # Number of insts commited each cycle
system.cpu.commit.committed_per_cycle::2      8933268     14.69%     47.11% # Number of insts commited each cycle
system.cpu.commit.committed_per_cycle::3      1087461      1.79%     48.90% # Number of insts commited each cycle
system.cpu.commit.committed_per_cycle::4       455864      0.75%     49.65% # Number of insts commited each cycle
system.cpu.commit.committed_per_cycle::5       165700      0.27%     49.92% # Number of insts commited each cycle
system.cpu.commit.committed_per_cycle::6      1931966      3.18%     53.10% # Number of insts commited each cycle
system.cpu.commit.committed_per_cycle::7      4762481      7.83%     60.93% # Number of insts commited each cycle
system.cpu.commit.committed_per_cycle::8     23751521     39.07%    100.00% # Number of insts commited each cycle
system.cpu.commit.committed_per_cycle::overflows            0      0.00%    100.00% # Number of insts commited each cycle
system.cpu.commit.committed_per_cycle::min_value            0                       # Number of insts commited each cycle
system.cpu.commit.committed_per_cycle::max_value            8                       # Number of insts commited each cycle
system.cpu.commit.committed_per_cycle::total     60792320                       # Number of insts commited each cycle
system.cpu.commit.fp_insts                          0                       # Number of committed floating point instructions.
system.cpu.commit.function_calls               292490                       # Number of function calls committed.
system.cpu.commit.int_insts                 221343543                       # Number of committed integer instructions.
system.cpu.commit.loads                      67121768                       # Number of loads committed
system.cpu.commit.membars                         180                       # Number of memory barriers committed
system.cpu.commit.op_class_0::No_OpClass           25      0.00%      0.00% # Class of committed instruction
system.cpu.commit.op_class_0::IntAlu        190129135     69.58%     69.58% # Class of committed instruction
system.cpu.commit.op_class_0::IntMult           31613      0.01%     69.59% # Class of committed instruction
system.cpu.commit.op_class_0::IntDiv              398      0.00%     69.59% # Class of committed instruction
system.cpu.commit.op_class_0::FloatAdd          86655      0.03%     69.62% # Class of committed instruction
system.cpu.commit.op_class_0::FloatCmp         102063      0.04%     69.66% # Class of committed instruction
system.cpu.commit.op_class_0::FloatCvt         106622      0.04%     69.70% # Class of committed instruction
system.cpu.commit.op_class_0::FloatMult        177750      0.07%     69.76% # Class of committed instruction
system.cpu.commit.op_class_0::FloatMultAcc       178290      0.07%     69.83% # Class of committed instruction
system.cpu.commit.op_class_0::FloatDiv          61984      0.02%     69.85% # Class of committed instruction
system.cpu.commit.op_class_0::FloatMisc          4669      0.00%     69.85% # Class of committed instruction
system.cpu.commit.op_class_0::FloatSqrt         30925      0.01%     69.86% # Class of committed instruction
system.cpu.commit.op_class_0::SimdAdd              65      0.00%     69.86% # Class of committed instruction
system.cpu.commit.op_class_0::SimdAddAcc            0      0.00%     69.86% # Class of committed instruction
system.cpu.commit.op_class_0::SimdAlu             134      0.00%     69.86% # Class of committed instruction
system.cpu.commit.op_class_0::SimdCmp             100      0.00%     69.86% # Class of committed instruction
system.cpu.commit.op_class_0::SimdCvt               3      0.00%     69.86% # Class of committed instruction
system.cpu.commit.op_class_0::SimdMisc           4304      0.00%     69.87% # Class of committed instruction
system.cpu.commit.op_class_0::SimdMult              0      0.00%     69.87% # Class of committed instruction
system.cpu.commit.op_class_0::SimdMultAcc            0      0.00%     69.87% # Class of committed instruction
system.cpu.commit.op_class_0::SimdShift             0      0.00%     69.87% # Class of committed instruction
system.cpu.commit.op_class_0::SimdShiftAcc            0      0.00%     69.87% # Class of committed instruction
system.cpu.commit.op_class_0::SimdDiv               0      0.00%     69.87% # Class of committed instruction
system.cpu.commit.op_class_0::SimdSqrt              0      0.00%     69.87% # Class of committed instruction
system.cpu.commit.op_class_0::SimdFloatAdd            4      0.00%     69.87% # Class of committed instruction
system.cpu.commit.op_class_0::SimdFloatAlu            0      0.00%     69.87% # Class of committed instruction
system.cpu.commit.op_class_0::SimdFloatCmp            0      0.00%     69.87% # Class of committed instruction
system.cpu.commit.op_class_0::SimdFloatCvt            0      0.00%     69.87% # Class of committed instruction
system.cpu.commit.op_class_0::SimdFloatDiv            0      0.00%     69.87% # Class of committed instruction
system.cpu.commit.op_class_0::SimdFloatMisc            0      0.00%     69.87% # Class of committed instruction
system.cpu.commit.op_class_0::SimdFloatMult            0      0.00%     69.87% # Class of committed instruction
system.cpu.commit.op_class_0::SimdFloatMultAcc            0      0.00%     69.87% # Class of committed instruction
system.cpu.commit.op_class_0::SimdFloatSqrt            0      0.00%     69.87% # Class of committed instruction
system.cpu.commit.op_class_0::SimdReduceAdd            0      0.00%     69.87% # Class of committed instruction
system.cpu.commit.op_class_0::SimdReduceAlu            0      0.00%     69.87% # Class of committed instruction
system.cpu.commit.op_class_0::SimdReduceCmp            0      0.00%     69.87% # Class of committed instruction
system.cpu.commit.op_class_0::SimdFloatReduceAdd            0      0.00%     69.87% # Class of committed instruction
system.cpu.commit.op_class_0::SimdFloatReduceCmp            0      0.00%     69.87% # Class of committed instruction
system.cpu.commit.op_class_0::SimdAes               0      0.00%     69.87% # Class of committed instruction
system.cpu.commit.op_class_0::SimdAesMix            0      0.00%     69.87% # Class of committed instruction
system.cpu.commit.op_class_0::SimdSha1Hash            0      0.00%     69.87% # Class of committed instruction
system.cpu.commit.op_class_0::SimdSha1Hash2            0      0.00%     69.87% # Class of committed instruction
system.cpu.commit.op_class_0::SimdSha256Hash            0      0.00%     69.87% # Class of committed instruction
system.cpu.commit.op_class_0::SimdSha256Hash2            0      0.00%     69.87% # Class of committed instruction
system.cpu.commit.op_class_0::SimdShaSigma2            0      0.00%     69.87% # Class of committed instruction
system.cpu.commit.op_class_0::SimdShaSigma3            0      0.00%     69.87% # Class of committed instruction
system.cpu.commit.op_class_0::SimdPredAlu            0      0.00%     69.87% # Class of committed instruction
system.cpu.commit.op_class_0::MemRead        67121768     24.56%     94.43% # Class of committed instruction
system.cpu.commit.op_class_0::MemWrite       15224020      5.57%    100.00% # Class of committed instruction
system.cpu.commit.op_class_0::FloatMemRead            0      0.00%    100.00% # Class of committed instruction
system.cpu.commit.op_class_0::FloatMemWrite            0      0.00%    100.00% # Class of committed instruction
system.cpu.commit.op_class_0::IprAccess             0      0.00%    100.00% # Class of committed instruction
system.cpu.commit.op_class_0::InstPrefetch            0      0.00%    100.00% # Class of committed instruction
system.cpu.commit.op_class_0::total         273260527                       # Class of committed instruction
system.cpu.commit.refs                       82345788                       # Number of memory references committed
system.cpu.commit.swp_count                         0                       # Number of s/w prefetches committed
system.cpu.commit.vec_insts                   2053006                       # Number of committed Vector instructions.
system.cpu.committedInsts                   269210254                       # Number of Instructions Simulated
system.cpu.committedOps                     273260045                       # Number of Ops (including micro ops) Simulated
system.cpu.cpi                               0.231162                       # CPI: Cycles Per Instruction
system.cpu.cpi_total                         0.231162                       # CPI: Total CPI of All Threads
system.cpu.decode.BlockedCycles               2456703                       # Number of cycles decode is blocked
system.cpu.decode.BranchMispred                   556                       # Number of times decode detected a branch misprediction
system.cpu.decode.BranchResolved             35910778                       # Number of times decode resolved a branch
system.cpu.decode.DecodedInsts              286850387                       # Number of instructions handled by decode
system.cpu.decode.IdleCycles                  9341940                       # Number of cycles decode is idle
system.cpu.decode.RunCycles                  48702876                       # Number of cycles decode is running
system.cpu.decode.SquashCycles                 203780                       # Number of cycles decode is squashing
system.cpu.decode.SquashedInsts                  1949                       # Number of squashed instructions handled by decode
system.cpu.decode.UnblockCycles               1456252                       # Number of cycles decode is unblocking
system.cpu.dtb.accesses                             0                       # DTB accesses
system.cpu.dtb.align_faults                         0                       # Number of TLB faults due to alignment restrictions
system.cpu.dtb.domain_faults                        0                       # Number of TLB faults due to domain restrictions
system.cpu.dtb.flush_entries                        0                       # Number of entries that have been flushed from TLB
system.cpu.dtb.flush_tlb                            0                       # Number of times complete TLB was flushed
system.cpu.dtb.flush_tlb_asid                       0                       # Number of times TLB was flushed by ASID
system.cpu.dtb.flush_tlb_mva                        0                       # Number of times TLB was flushed by MVA
system.cpu.dtb.flush_tlb_mva_asid                   0                       # Number of times TLB was flushed by MVA & ASID
system.cpu.dtb.hits                                 0                       # DTB hits
system.cpu.dtb.inst_accesses                        0                       # ITB inst accesses
system.cpu.dtb.inst_hits                            0                       # ITB inst hits
system.cpu.dtb.inst_misses                          0                       # ITB inst misses
system.cpu.dtb.misses                               0                       # DTB misses
system.cpu.dtb.perms_faults                         0                       # Number of TLB faults due to permissions restrictions
system.cpu.dtb.prefetch_faults                      0                       # Number of TLB faults due to prefetch
system.cpu.dtb.read_accesses                        0                       # DTB read accesses
system.cpu.dtb.read_hits                            0                       # DTB read hits
system.cpu.dtb.read_misses                          0                       # DTB read misses
system.cpu.dtb.stage2_mmu.stage2_tlb.accesses            0                       # DTB accesses
system.cpu.dtb.stage2_mmu.stage2_tlb.align_faults            0                       # Number of TLB faults due to alignment restrictions
system.cpu.dtb.stage2_mmu.stage2_tlb.domain_faults            0                       # Number of TLB faults due to domain restrictions
system.cpu.dtb.stage2_mmu.stage2_tlb.flush_entries            0                       # Number of entries that have been flushed from TLB
system.cpu.dtb.stage2_mmu.stage2_tlb.flush_tlb            0                       # Number of times complete TLB was flushed
system.cpu.dtb.stage2_mmu.stage2_tlb.flush_tlb_asid            0                       # Number of times TLB was flushed by ASID
system.cpu.dtb.stage2_mmu.stage2_tlb.flush_tlb_mva            0                       # Number of times TLB was flushed by MVA
system.cpu.dtb.stage2_mmu.stage2_tlb.flush_tlb_mva_asid            0                       # Number of times TLB was flushed by MVA & ASID
system.cpu.dtb.stage2_mmu.stage2_tlb.hits            0                       # DTB hits
system.cpu.dtb.stage2_mmu.stage2_tlb.inst_accesses            0                       # ITB inst accesses
system.cpu.dtb.stage2_mmu.stage2_tlb.inst_hits            0                       # ITB inst hits
system.cpu.dtb.stage2_mmu.stage2_tlb.inst_misses            0                       # ITB inst misses
system.cpu.dtb.stage2_mmu.stage2_tlb.misses            0                       # DTB misses
system.cpu.dtb.stage2_mmu.stage2_tlb.perms_faults            0                       # Number of TLB faults due to permissions restrictions
system.cpu.dtb.stage2_mmu.stage2_tlb.prefetch_faults            0                       # Number of TLB faults due to prefetch
system.cpu.dtb.stage2_mmu.stage2_tlb.read_accesses            0                       # DTB read accesses
system.cpu.dtb.stage2_mmu.stage2_tlb.read_hits            0                       # DTB read hits
system.cpu.dtb.stage2_mmu.stage2_tlb.read_misses            0                       # DTB read misses
system.cpu.dtb.stage2_mmu.stage2_tlb.walker.walkRequestOrigin_Requested::Data            0                       # Table walker requests started/completed, data/inst
system.cpu.dtb.stage2_mmu.stage2_tlb.walker.walkRequestOrigin_Requested::Inst            0                       # Table walker requests started/completed, data/inst
system.cpu.dtb.stage2_mmu.stage2_tlb.walker.walkRequestOrigin_Requested::total            0                       # Table walker requests started/completed, data/inst
system.cpu.dtb.stage2_mmu.stage2_tlb.walker.walkRequestOrigin_Completed::Data            0                       # Table walker requests started/completed, data/inst
system.cpu.dtb.stage2_mmu.stage2_tlb.walker.walkRequestOrigin_Completed::Inst            0                       # Table walker requests started/completed, data/inst
system.cpu.dtb.stage2_mmu.stage2_tlb.walker.walkRequestOrigin_Completed::total            0                       # Table walker requests started/completed, data/inst
system.cpu.dtb.stage2_mmu.stage2_tlb.walker.walkRequestOrigin::total            0                       # Table walker requests started/completed, data/inst
system.cpu.dtb.stage2_mmu.stage2_tlb.walker.walks            0                       # Table walker walks requested
system.cpu.dtb.stage2_mmu.stage2_tlb.write_accesses            0                       # DTB write accesses
system.cpu.dtb.stage2_mmu.stage2_tlb.write_hits            0                       # DTB write hits
system.cpu.dtb.stage2_mmu.stage2_tlb.write_misses            0                       # DTB write misses
system.cpu.dtb.walker.walkRequestOrigin_Requested::Data            0                       # Table walker requests started/completed, data/inst
system.cpu.dtb.walker.walkRequestOrigin_Requested::Inst            0                       # Table walker requests started/completed, data/inst
system.cpu.dtb.walker.walkRequestOrigin_Requested::total            0                       # Table walker requests started/completed, data/inst
system.cpu.dtb.walker.walkRequestOrigin_Completed::Data            0                       # Table walker requests started/completed, data/inst
system.cpu.dtb.walker.walkRequestOrigin_Completed::Inst            0                       # Table walker requests started/completed, data/inst
system.cpu.dtb.walker.walkRequestOrigin_Completed::total            0                       # Table walker requests started/completed, data/inst
system.cpu.dtb.walker.walkRequestOrigin::total            0                       # Table walker requests started/completed, data/inst
system.cpu.dtb.walker.walks                         0                       # Table walker walks requested
system.cpu.dtb.write_accesses                       0                       # DTB write accesses
system.cpu.dtb.write_hits                           0                       # DTB write hits
system.cpu.dtb.write_misses                         0                       # DTB write misses
system.cpu.fetch.Branches                    56259674                       # Number of branches that fetch encountered
system.cpu.fetch.CacheLines                   8909644                       # Number of cache lines fetched
system.cpu.fetch.Cycles                      52943841                       # Number of cycles fetch has run and was not squashing or blocked
system.cpu.fetch.IcacheSquashes                 21192                       # Number of outstanding Icache misses that were squashed
system.cpu.fetch.IcacheWaitRetryStallCycles           27                       # Number of stall cycles due to full MSHR
system.cpu.fetch.Insts                      285718775                       # Number of instructions fetch has processed
system.cpu.fetch.MiscStallCycles                    2                       # Number of cycles fetch has spent waiting on interrupts, or bad addresses, or out of MSHRs
system.cpu.fetch.SquashCycles                  408644                       # Number of cycles fetch has spent squashing
system.cpu.fetch.branchRate                  0.904041                       # Number of branch fetches per cycle
system.cpu.fetch.icacheStallCycles            9013359                       # Number of cycles fetch is stalled on an Icache miss
system.cpu.fetch.predictedBranches           36614971                       # Number of branches that fetch has predicted taken
system.cpu.fetch.rate                        4.591239                       # Number of inst fetches per cycle
system.cpu.fetch.rateDist::samples           62161551                       # Number of instructions fetched each cycle (Total)
system.cpu.fetch.rateDist::mean              4.662277                       # Number of instructions fetched each cycle (Total)
system.cpu.fetch.rateDist::stdev             3.305481                       # Number of instructions fetched each cycle (Total)
system.cpu.fetch.rateDist::underflows               0      0.00%      0.00% # Number of instructions fetched each cycle (Total)
system.cpu.fetch.rateDist::0                 11161947     17.96%     17.96% # Number of instructions fetched each cycle (Total)
system.cpu.fetch.rateDist::1                  7273786     11.70%     29.66% # Number of instructions fetched each cycle (Total)
system.cpu.fetch.rateDist::2                  4695069      7.55%     37.21% # Number of instructions fetched each cycle (Total)
system.cpu.fetch.rateDist::3                  2141753      3.45%     40.66% # Number of instructions fetched each cycle (Total)
system.cpu.fetch.rateDist::4                  1246124      2.00%     42.66% # Number of instructions fetched each cycle (Total)
system.cpu.fetch.rateDist::5                  5005763      8.05%     50.71% # Number of instructions fetched each cycle (Total)
system.cpu.fetch.rateDist::6                  2486361      4.00%     54.71% # Number of instructions fetched each cycle (Total)
system.cpu.fetch.rateDist::7                  3412246      5.49%     60.20% # Number of instructions fetched each cycle (Total)
system.cpu.fetch.rateDist::8                 24738502     39.80%    100.00% # Number of instructions fetched each cycle (Total)
system.cpu.fetch.rateDist::overflows                0      0.00%    100.00% # Number of instructions fetched each cycle (Total)
system.cpu.fetch.rateDist::min_value                0                       # Number of instructions fetched each cycle (Total)
system.cpu.fetch.rateDist::max_value                8                       # Number of instructions fetched each cycle (Total)
system.cpu.fetch.rateDist::total             62161551                       # Number of instructions fetched each cycle (Total)
system.cpu.idleCycles                           69748                       # Total number of cycles that the CPU has spent unscheduled due to idling
system.cpu.iew.branchMispredicts               285201                       # Number of branch mispredicts detected at execute
system.cpu.iew.exec_branches                 53460800                       # Number of branches executed
system.cpu.iew.exec_nop                           654                       # number of nop insts executed
system.cpu.iew.exec_rate                     4.496807                       # Inst execution rate
system.cpu.iew.exec_refs                     84555564                       # number of memory reference insts executed
system.cpu.iew.exec_stores                   15280916                       # Number of stores executed
system.cpu.iew.exec_swp                             0                       # number of swp insts executed
system.cpu.iew.iewBlockCycles                 1166659                       # Number of cycles IEW is blocking
system.cpu.iew.iewDispLoadInsts              69451210                       # Number of dispatched load instructions
system.cpu.iew.iewDispNonSpecInsts                248                       # Number of dispatched non-speculative instructions
system.cpu.iew.iewDispSquashedInsts              7501                       # Number of squashed instructions skipped by dispatch
system.cpu.iew.iewDispStoreInsts             15409663                       # Number of dispatched store instructions
system.cpu.iew.iewDispatchedInsts           283504873                       # Number of instructions dispatched to IQ
system.cpu.iew.iewExecLoadInsts              69274648                       # Number of load instructions executed
system.cpu.iew.iewExecSquashedInsts            301570                       # Number of squashed instructions skipped in execute
system.cpu.iew.iewExecutedInsts             279842148                       # Number of executed instructions
system.cpu.iew.iewIQFullEvents                     15                       # Number of times the IQ has become full, causing a stall
system.cpu.iew.iewIdleCycles                        0                       # Number of cycles IEW is idle
system.cpu.iew.iewLSQFullEvents                  2618                       # Number of times the LSQ has become full, causing a stall
system.cpu.iew.iewSquashCycles                 203780                       # Number of cycles IEW is squashing
system.cpu.iew.iewUnblockCycles                  2702                       # Number of cycles IEW is unblocking
system.cpu.iew.lsq.thread0.blockedLoads             0                       # Number of blocked loads due to partial load-store forwarding
system.cpu.iew.lsq.thread0.cacheBlocked           980                       # Number of times an access to memory failed due to the cache being blocked
system.cpu.iew.lsq.thread0.forwLoads            13296                       # Number of loads that had data forwarded from stores
system.cpu.iew.lsq.thread0.ignoredResponses            0                       # Number of memory responses ignored because the instruction is squashed
system.cpu.iew.lsq.thread0.invAddrLoads             0                       # Number of loads ignored due to an invalid address
system.cpu.iew.lsq.thread0.invAddrSwpfs             0                       # Number of software prefetches ignored due to an invalid address
system.cpu.iew.lsq.thread0.memOrderViolation          351                       # Number of memory ordering violations
system.cpu.iew.lsq.thread0.rescheduledLoads       499994                       # Number of loads that were rescheduled
system.cpu.iew.lsq.thread0.squashedLoads      2329442                       # Number of loads squashed
system.cpu.iew.lsq.thread0.squashedStores       185643                       # Number of stores squashed
system.cpu.iew.memOrderViolationEvents            351                       # Number of memory order violations
system.cpu.iew.predictedNotTakenIncorrect        70255                       # Number of branches that were predicted not taken incorrectly
system.cpu.iew.predictedTakenIncorrect         214946                       # Number of branches that were predicted taken incorrectly
system.cpu.iew.wb_consumers                 360529623                       # num instructions consuming a value
system.cpu.iew.wb_count                     278786421                       # cumulative count of insts written-back
system.cpu.iew.wb_fanout                     0.553957                       # average fanout of values written-back
system.cpu.iew.wb_producers                 199717985                       # num instructions producing a value
system.cpu.iew.wb_rate                       4.479843                       # insts written-back per cycle
system.cpu.iew.wb_sent                      279022302                       # cumulative count of insts sent to commit
system.cpu.int_regfile_reads                345418761                       # number of integer regfile reads
system.cpu.int_regfile_writes               210153587                       # number of integer regfile writes
system.cpu.ipc                               4.325962                       # IPC: Instructions Per Cycle
system.cpu.ipc_total                         4.325962                       # IPC: Total IPC of All Threads
system.cpu.iq.FU_type_0::No_OpClass                30      0.00%      0.00% # Type of FU issued
system.cpu.iq.FU_type_0::IntAlu             194593485     69.46%     69.46% # Type of FU issued
system.cpu.iq.FU_type_0::IntMult                31682      0.01%     69.47% # Type of FU issued
system.cpu.iq.FU_type_0::IntDiv                   439      0.00%     69.47% # Type of FU issued
system.cpu.iq.FU_type_0::FloatAdd               86691      0.03%     69.50% # Type of FU issued
system.cpu.iq.FU_type_0::FloatCmp              102164      0.04%     69.54% # Type of FU issued
system.cpu.iq.FU_type_0::FloatCvt              106658      0.04%     69.58% # Type of FU issued
system.cpu.iq.FU_type_0::FloatMult             181502      0.06%     69.64% # Type of FU issued
system.cpu.iq.FU_type_0::FloatMultAcc          178531      0.06%     69.71% # Type of FU issued
system.cpu.iq.FU_type_0::FloatDiv               61989      0.02%     69.73% # Type of FU issued
system.cpu.iq.FU_type_0::FloatMisc               4820      0.00%     69.73% # Type of FU issued
system.cpu.iq.FU_type_0::FloatSqrt              30927      0.01%     69.74% # Type of FU issued
system.cpu.iq.FU_type_0::SimdAdd                   82      0.00%     69.74% # Type of FU issued
system.cpu.iq.FU_type_0::SimdAddAcc                 0      0.00%     69.74% # Type of FU issued
system.cpu.iq.FU_type_0::SimdAlu                  158      0.00%     69.74% # Type of FU issued
system.cpu.iq.FU_type_0::SimdCmp                  120      0.00%     69.74% # Type of FU issued
system.cpu.iq.FU_type_0::SimdCvt                    5      0.00%     69.74% # Type of FU issued
system.cpu.iq.FU_type_0::SimdMisc                4395      0.00%     69.74% # Type of FU issued
system.cpu.iq.FU_type_0::SimdMult                   0      0.00%     69.74% # Type of FU issued
system.cpu.iq.FU_type_0::SimdMultAcc                0      0.00%     69.74% # Type of FU issued
system.cpu.iq.FU_type_0::SimdShift                  0      0.00%     69.74% # Type of FU issued
system.cpu.iq.FU_type_0::SimdShiftAcc               0      0.00%     69.74% # Type of FU issued
system.cpu.iq.FU_type_0::SimdDiv                    0      0.00%     69.74% # Type of FU issued
system.cpu.iq.FU_type_0::SimdSqrt                   0      0.00%     69.74% # Type of FU issued
system.cpu.iq.FU_type_0::SimdFloatAdd               4      0.00%     69.74% # Type of FU issued
system.cpu.iq.FU_type_0::SimdFloatAlu               0      0.00%     69.74% # Type of FU issued
system.cpu.iq.FU_type_0::SimdFloatCmp               0      0.00%     69.74% # Type of FU issued
system.cpu.iq.FU_type_0::SimdFloatCvt               0      0.00%     69.74% # Type of FU issued
system.cpu.iq.FU_type_0::SimdFloatDiv               0      0.00%     69.74% # Type of FU issued
system.cpu.iq.FU_type_0::SimdFloatMisc              0      0.00%     69.74% # Type of FU issued
system.cpu.iq.FU_type_0::SimdFloatMult              0      0.00%     69.74% # Type of FU issued
system.cpu.iq.FU_type_0::SimdFloatMultAcc            0      0.00%     69.74% # Type of FU issued
system.cpu.iq.FU_type_0::SimdFloatSqrt              0      0.00%     69.74% # Type of FU issued
system.cpu.iq.FU_type_0::SimdReduceAdd              0      0.00%     69.74% # Type of FU issued
system.cpu.iq.FU_type_0::SimdReduceAlu              0      0.00%     69.74% # Type of FU issued
system.cpu.iq.FU_type_0::SimdReduceCmp              0      0.00%     69.74% # Type of FU issued
system.cpu.iq.FU_type_0::SimdFloatReduceAdd            0      0.00%     69.74% # Type of FU issued
system.cpu.iq.FU_type_0::SimdFloatReduceCmp            0      0.00%     69.74% # Type of FU issued
system.cpu.iq.FU_type_0::SimdAes                    0      0.00%     69.74% # Type of FU issued
system.cpu.iq.FU_type_0::SimdAesMix                 0      0.00%     69.74% # Type of FU issued
system.cpu.iq.FU_type_0::SimdSha1Hash               0      0.00%     69.74% # Type of FU issued
system.cpu.iq.FU_type_0::SimdSha1Hash2              0      0.00%     69.74% # Type of FU issued
system.cpu.iq.FU_type_0::SimdSha256Hash             0      0.00%     69.74% # Type of FU issued
system.cpu.iq.FU_type_0::SimdSha256Hash2            0      0.00%     69.74% # Type of FU issued
system.cpu.iq.FU_type_0::SimdShaSigma2              0      0.00%     69.74% # Type of FU issued
system.cpu.iq.FU_type_0::SimdShaSigma3              0      0.00%     69.74% # Type of FU issued
system.cpu.iq.FU_type_0::SimdPredAlu                0      0.00%     69.74% # Type of FU issued
system.cpu.iq.FU_type_0::MemRead             69467289     24.80%     94.54% # Type of FU issued
system.cpu.iq.FU_type_0::MemWrite            15292747      5.46%    100.00% # Type of FU issued
system.cpu.iq.FU_type_0::FloatMemRead               0      0.00%    100.00% # Type of FU issued
system.cpu.iq.FU_type_0::FloatMemWrite              0      0.00%    100.00% # Type of FU issued
system.cpu.iq.FU_type_0::IprAccess                  0      0.00%    100.00% # Type of FU issued
system.cpu.iq.FU_type_0::InstPrefetch               0      0.00%    100.00% # Type of FU issued
system.cpu.iq.FU_type_0::total              280143718                       # Type of FU issued
system.cpu.iq.fp_alu_accesses                       0                       # Number of floating point alu accesses
system.cpu.iq.fp_inst_queue_reads                   0                       # Number of floating instruction queue reads
system.cpu.iq.fp_inst_queue_wakeup_accesses            0                       # Number of floating instruction queue wakeup accesses
system.cpu.iq.fp_inst_queue_writes                  0                       # Number of floating instruction queue writes
system.cpu.iq.fu_busy_cnt                     2803567                       # FU busy when requested
system.cpu.iq.fu_busy_rate                   0.010008                       # FU busy rate (busy events/executed inst)
system.cpu.iq.fu_full::No_OpClass                   0      0.00%      0.00% # attempts to use FU when none available
system.cpu.iq.fu_full::IntAlu                 1817917     64.84%     64.84% # attempts to use FU when none available
system.cpu.iq.fu_full::IntMult                      9      0.00%     64.84% # attempts to use FU when none available
system.cpu.iq.fu_full::IntDiv                    1840      0.07%     64.91% # attempts to use FU when none available
system.cpu.iq.fu_full::FloatAdd                     0      0.00%     64.91% # attempts to use FU when none available
system.cpu.iq.fu_full::FloatCmp                     0      0.00%     64.91% # attempts to use FU when none available
system.cpu.iq.fu_full::FloatCvt                     0      0.00%     64.91% # attempts to use FU when none available
system.cpu.iq.fu_full::FloatMult                 6688      0.24%     65.15% # attempts to use FU when none available
system.cpu.iq.fu_full::FloatMultAcc              3362      0.12%     65.27% # attempts to use FU when none available
system.cpu.iq.fu_full::FloatDiv                    48      0.00%     65.27% # attempts to use FU when none available
system.cpu.iq.fu_full::FloatMisc                   44      0.00%     65.27% # attempts to use FU when none available
system.cpu.iq.fu_full::FloatSqrt                    0      0.00%     65.27% # attempts to use FU when none available
system.cpu.iq.fu_full::SimdAdd                      0      0.00%     65.27% # attempts to use FU when none available
system.cpu.iq.fu_full::SimdAddAcc                   0      0.00%     65.27% # attempts to use FU when none available
system.cpu.iq.fu_full::SimdAlu                      2      0.00%     65.27% # attempts to use FU when none available
system.cpu.iq.fu_full::SimdCmp                      7      0.00%     65.27% # attempts to use FU when none available
system.cpu.iq.fu_full::SimdCvt                      0      0.00%     65.27% # attempts to use FU when none available
system.cpu.iq.fu_full::SimdMisc                     0      0.00%     65.27% # attempts to use FU when none available
system.cpu.iq.fu_full::SimdMult                     0      0.00%     65.27% # attempts to use FU when none available
system.cpu.iq.fu_full::SimdMultAcc                  0      0.00%     65.27% # attempts to use FU when none available
system.cpu.iq.fu_full::SimdShift                    0      0.00%     65.27% # attempts to use FU when none available
system.cpu.iq.fu_full::SimdShiftAcc                 0      0.00%     65.27% # attempts to use FU when none available
system.cpu.iq.fu_full::SimdDiv                      0      0.00%     65.27% # attempts to use FU when none available
system.cpu.iq.fu_full::SimdSqrt                     0      0.00%     65.27% # attempts to use FU when none available
system.cpu.iq.fu_full::SimdFloatAdd                 0      0.00%     65.27% # attempts to use FU when none available
system.cpu.iq.fu_full::SimdFloatAlu                 0      0.00%     65.27% # attempts to use FU when none available
system.cpu.iq.fu_full::SimdFloatCmp                 0      0.00%     65.27% # attempts to use FU when none available
system.cpu.iq.fu_full::SimdFloatCvt                 0      0.00%     65.27% # attempts to use FU when none available
system.cpu.iq.fu_full::SimdFloatDiv                 0      0.00%     65.27% # attempts to use FU when none available
system.cpu.iq.fu_full::SimdFloatMisc                0      0.00%     65.27% # attempts to use FU when none available
system.cpu.iq.fu_full::SimdFloatMult                0      0.00%     65.27% # attempts to use FU when none available
system.cpu.iq.fu_full::SimdFloatMultAcc             0      0.00%     65.27% # attempts to use FU when none available
system.cpu.iq.fu_full::SimdFloatSqrt                0      0.00%     65.27% # attempts to use FU when none available
system.cpu.iq.fu_full::SimdReduceAdd                0      0.00%     65.27% # attempts to use FU when none available
system.cpu.iq.fu_full::SimdReduceAlu                0      0.00%     65.27% # attempts to use FU when none available
system.cpu.iq.fu_full::SimdReduceCmp                0      0.00%     65.27% # attempts to use FU when none available
system.cpu.iq.fu_full::SimdFloatReduceAdd            0      0.00%     65.27% # attempts to use FU when none available
system.cpu.iq.fu_full::SimdFloatReduceCmp            0      0.00%     65.27% # attempts to use FU when none available
system.cpu.iq.fu_full::SimdAes                      0      0.00%     65.27% # attempts to use FU when none available
system.cpu.iq.fu_full::SimdAesMix                   0      0.00%     65.27% # attempts to use FU when none available
system.cpu.iq.fu_full::SimdSha1Hash                 0      0.00%     65.27% # attempts to use FU when none available
system.cpu.iq.fu_full::SimdSha1Hash2                0      0.00%     65.27% # attempts to use FU when none available
system.cpu.iq.fu_full::SimdSha256Hash               0      0.00%     65.27% # attempts to use FU when none available
system.cpu.iq.fu_full::SimdSha256Hash2              0      0.00%     65.27% # attempts to use FU when none available
system.cpu.iq.fu_full::SimdShaSigma2                0      0.00%     65.27% # attempts to use FU when none available
system.cpu.iq.fu_full::SimdShaSigma3                0      0.00%     65.27% # attempts to use FU when none available
system.cpu.iq.fu_full::SimdPredAlu                  0      0.00%     65.27% # attempts to use FU when none available
system.cpu.iq.fu_full::MemRead                 493835     17.61%     82.89% # attempts to use FU when none available
system.cpu.iq.fu_full::MemWrite                479815     17.11%    100.00% # attempts to use FU when none available
system.cpu.iq.fu_full::FloatMemRead                 0      0.00%    100.00% # attempts to use FU when none available
system.cpu.iq.fu_full::FloatMemWrite                0      0.00%    100.00% # attempts to use FU when none available
system.cpu.iq.fu_full::IprAccess                    0      0.00%    100.00% # attempts to use FU when none available
system.cpu.iq.fu_full::InstPrefetch                 0      0.00%    100.00% # attempts to use FU when none available
system.cpu.iq.int_alu_accesses              280633043                       # Number of integer alu accesses
system.cpu.iq.int_inst_queue_reads          620879505                       # Number of integer instruction queue reads
system.cpu.iq.int_inst_queue_wakeup_accesses    276724554                       # Number of integer instruction queue wakeup accesses
system.cpu.iq.int_inst_queue_writes         291618383                       # Number of integer instruction queue writes
system.cpu.iq.iqInstsAdded                  283503971                       # Number of instructions added to the IQ (excludes non-spec)
system.cpu.iq.iqInstsIssued                 280143718                       # Number of instructions issued
system.cpu.iq.iqNonSpecInstsAdded                 248                       # Number of non-speculative instructions added to the IQ
system.cpu.iq.iqSquashedInstsExamined        10244173                       # Number of squashed instructions iterated over during squash; mainly for profiling
system.cpu.iq.iqSquashedInstsIssued              6800                       # Number of squashed instructions issued
system.cpu.iq.iqSquashedNonSpecRemoved             55                       # Number of squashed non-spec instructions that were removed
system.cpu.iq.iqSquashedOperandsExamined      9203381                       # Number of squashed operands that are examined and possibly removed from graph
system.cpu.iq.issued_per_cycle::samples      62161551                       # Number of insts issued each cycle
system.cpu.iq.issued_per_cycle::mean         4.506704                       # Number of insts issued each cycle
system.cpu.iq.issued_per_cycle::stdev        2.117994                       # Number of insts issued each cycle
system.cpu.iq.issued_per_cycle::underflows            0      0.00%      0.00% # Number of insts issued each cycle
system.cpu.iq.issued_per_cycle::0             3124409      5.03%      5.03% # Number of insts issued each cycle
system.cpu.iq.issued_per_cycle::1             1632116      2.63%      7.65% # Number of insts issued each cycle
system.cpu.iq.issued_per_cycle::2             6710268     10.79%     18.45% # Number of insts issued each cycle
system.cpu.iq.issued_per_cycle::3            12261263     19.72%     38.17% # Number of insts issued each cycle
system.cpu.iq.issued_per_cycle::4             4107343      6.61%     44.78% # Number of insts issued each cycle
system.cpu.iq.issued_per_cycle::5             9010182     14.49%     59.27% # Number of insts issued each cycle
system.cpu.iq.issued_per_cycle::6            13434024     21.61%     80.89% # Number of insts issued each cycle
system.cpu.iq.issued_per_cycle::7             8832717     14.21%     95.09% # Number of insts issued each cycle
system.cpu.iq.issued_per_cycle::8             3049229      4.91%    100.00% # Number of insts issued each cycle
system.cpu.iq.issued_per_cycle::overflows            0      0.00%    100.00% # Number of insts issued each cycle
system.cpu.iq.issued_per_cycle::min_value            0                       # Number of insts issued each cycle
system.cpu.iq.issued_per_cycle::max_value            8                       # Number of insts issued each cycle
system.cpu.iq.issued_per_cycle::total        62161551                       # Number of insts issued each cycle
system.cpu.iq.rate                           4.501653                       # Inst issue rate
system.cpu.iq.vec_alu_accesses                2314212                       # Number of vector alu accesses
system.cpu.iq.vec_inst_queue_reads            4379849                       # Number of vector instruction queue reads
system.cpu.iq.vec_inst_queue_wakeup_accesses      2061867                       # Number of vector instruction queue wakeup accesses
system.cpu.iq.vec_inst_queue_writes           2130358                       # Number of vector instruction queue writes
system.cpu.itb.accesses                             0                       # DTB accesses
system.cpu.itb.align_faults                         0                       # Number of TLB faults due to alignment restrictions
system.cpu.itb.domain_faults                        0                       # Number of TLB faults due to domain restrictions
system.cpu.itb.flush_entries                        0                       # Number of entries that have been flushed from TLB
system.cpu.itb.flush_tlb                            0                       # Number of times complete TLB was flushed
system.cpu.itb.flush_tlb_asid                       0                       # Number of times TLB was flushed by ASID
system.cpu.itb.flush_tlb_mva                        0                       # Number of times TLB was flushed by MVA
system.cpu.itb.flush_tlb_mva_asid                   0                       # Number of times TLB was flushed by MVA & ASID
system.cpu.itb.hits                                 0                       # DTB hits
system.cpu.itb.inst_accesses                        0                       # ITB inst accesses
system.cpu.itb.inst_hits                            0                       # ITB inst hits
system.cpu.itb.inst_misses                          0                       # ITB inst misses
system.cpu.itb.misses                               0                       # DTB misses
system.cpu.itb.perms_faults                         0                       # Number of TLB faults due to permissions restrictions
system.cpu.itb.prefetch_faults                      0                       # Number of TLB faults due to prefetch
system.cpu.itb.read_accesses                        0                       # DTB read accesses
system.cpu.itb.read_hits                            0                       # DTB read hits
system.cpu.itb.read_misses                          0                       # DTB read misses
system.cpu.itb.stage2_mmu.stage2_tlb.accesses            0                       # DTB accesses
system.cpu.itb.stage2_mmu.stage2_tlb.align_faults            0                       # Number of TLB faults due to alignment restrictions
system.cpu.itb.stage2_mmu.stage2_tlb.domain_faults            0                       # Number of TLB faults due to domain restrictions
system.cpu.itb.stage2_mmu.stage2_tlb.flush_entries            0                       # Number of entries that have been flushed from TLB
system.cpu.itb.stage2_mmu.stage2_tlb.flush_tlb            0                       # Number of times complete TLB was flushed
system.cpu.itb.stage2_mmu.stage2_tlb.flush_tlb_asid            0                       # Number of times TLB was flushed by ASID
system.cpu.itb.stage2_mmu.stage2_tlb.flush_tlb_mva            0                       # Number of times TLB was flushed by MVA
system.cpu.itb.stage2_mmu.stage2_tlb.flush_tlb_mva_asid            0                       # Number of times TLB was flushed by MVA & ASID
system.cpu.itb.stage2_mmu.stage2_tlb.hits            0                       # DTB hits
system.cpu.itb.stage2_mmu.stage2_tlb.inst_accesses            0                       # ITB inst accesses
system.cpu.itb.stage2_mmu.stage2_tlb.inst_hits            0                       # ITB inst hits
system.cpu.itb.stage2_mmu.stage2_tlb.inst_misses            0                       # ITB inst misses
system.cpu.itb.stage2_mmu.stage2_tlb.misses            0                       # DTB misses
system.cpu.itb.stage2_mmu.stage2_tlb.perms_faults            0                       # Number of TLB faults due to permissions restrictions
system.cpu.itb.stage2_mmu.stage2_tlb.prefetch_faults            0                       # Number of TLB faults due to prefetch
system.cpu.itb.stage2_mmu.stage2_tlb.read_accesses            0                       # DTB read accesses
system.cpu.itb.stage2_mmu.stage2_tlb.read_hits            0                       # DTB read hits
system.cpu.itb.stage2_mmu.stage2_tlb.read_misses            0                       # DTB read misses
system.cpu.itb.stage2_mmu.stage2_tlb.walker.walkRequestOrigin_Requested::Data            0                       # Table walker requests started/completed, data/inst
system.cpu.itb.stage2_mmu.stage2_tlb.walker.walkRequestOrigin_Requested::Inst            0                       # Table walker requests started/completed, data/inst
system.cpu.itb.stage2_mmu.stage2_tlb.walker.walkRequestOrigin_Requested::total            0                       # Table walker requests started/completed, data/inst
system.cpu.itb.stage2_mmu.stage2_tlb.walker.walkRequestOrigin_Completed::Data            0                       # Table walker requests started/completed, data/inst
system.cpu.itb.stage2_mmu.stage2_tlb.walker.walkRequestOrigin_Completed::Inst            0                       # Table walker requests started/completed, data/inst
system.cpu.itb.stage2_mmu.stage2_tlb.walker.walkRequestOrigin_Completed::total            0                       # Table walker requests started/completed, data/inst
system.cpu.itb.stage2_mmu.stage2_tlb.walker.walkRequestOrigin::total            0                       # Table walker requests started/completed, data/inst
system.cpu.itb.stage2_mmu.stage2_tlb.walker.walks            0                       # Table walker walks requested
system.cpu.itb.stage2_mmu.stage2_tlb.write_accesses            0                       # DTB write accesses
system.cpu.itb.stage2_mmu.stage2_tlb.write_hits            0                       # DTB write hits
system.cpu.itb.stage2_mmu.stage2_tlb.write_misses            0                       # DTB write misses
system.cpu.itb.walker.walkRequestOrigin_Requested::Data            0                       # Table walker requests started/completed, data/inst
system.cpu.itb.walker.walkRequestOrigin_Requested::Inst            0                       # Table walker requests started/completed, data/inst
system.cpu.itb.walker.walkRequestOrigin_Requested::total            0                       # Table walker requests started/completed, data/inst
system.cpu.itb.walker.walkRequestOrigin_Completed::Data            0                       # Table walker requests started/completed, data/inst
system.cpu.itb.walker.walkRequestOrigin_Completed::Inst            0                       # Table walker requests started/completed, data/inst
system.cpu.itb.walker.walkRequestOrigin_Completed::total            0                       # Table walker requests started/completed, data/inst
system.cpu.itb.walker.walkRequestOrigin::total            0                       # Table walker requests started/completed, data/inst
system.cpu.itb.walker.walks                         0                       # Table walker walks requested
system.cpu.itb.write_accesses                       0                       # DTB write accesses
system.cpu.itb.write_hits                           0                       # DTB write hits
system.cpu.itb.write_misses                         0                       # DTB write misses
system.cpu.memDep0.conflictingLoads             30601                       # Number of conflicting loads.
system.cpu.memDep0.conflictingStores            47509                       # Number of conflicting stores.
system.cpu.memDep0.insertedLoads             69451210                       # Number of loads inserted to the mem dependence unit.
system.cpu.memDep0.insertedStores            15409663                       # Number of stores inserted to the mem dependence unit.
system.cpu.misc_regfile_reads               167654278                       # number of misc regfile reads
system.cpu.misc_regfile_writes                 745014                       # number of misc regfile writes
system.cpu.numCycles                         62231299                       # number of cpu cycles simulated
system.cpu.numWorkItemsCompleted                    0                       # number of work items this cpu completed
system.cpu.numWorkItemsStarted                      0                       # number of work items this cpu started
system.cpu.rename.BlockCycles                 1171446                       # Number of cycles rename is blocking
system.cpu.rename.CommittedMaps             360669296                       # Number of HB maps that are committed
system.cpu.rename.IQFullEvents                 603287                       # Number of times rename has blocked due to IQ full
system.cpu.rename.IdleCycles                 10126512                       # Number of cycles rename is idle
system.cpu.rename.LQFullEvents                   4742                       # Number of times rename has blocked due to LQ full
system.cpu.rename.ROBFullEvents                  3277                       # Number of times rename has blocked due to ROB full
system.cpu.rename.RenameLookups             521806510                       # Number of register rename lookups that rename has made
system.cpu.rename.RenamedInsts              285713676                       # Number of instructions processed by rename
system.cpu.rename.RenamedOperands           378651609                       # Number of destination operands rename has renamed
system.cpu.rename.RunCycles                  49280178                       # Number of cycles rename is running
system.cpu.rename.SQFullEvents                  55431                       # Number of times rename has blocked due to SQ full
system.cpu.rename.SquashCycles                 203780                       # Number of cycles rename is squashing
system.cpu.rename.UnblockCycles               1364979                       # Number of cycles rename is unblocking
system.cpu.rename.UndoneMaps                 17982313                       # Number of HB maps that are undone due to squashing
system.cpu.rename.int_rename_lookups        352285263                       # Number of integer rename lookups
system.cpu.rename.serializeStallCycles          14656                       # count of cycles rename stalled for serializing inst
system.cpu.rename.serializingInsts                874                       # count of serializing insts renamed
system.cpu.rename.skidInsts                   6641690                       # count of insts added to the skid buffer
system.cpu.rename.tempSerializingInsts            257                       # count of temporary serializing insts renamed
system.cpu.rename.vec_rename_lookups          2678162                       # Number of vector rename lookups
system.cpu.rob.rob_reads                    320544619                       # The number of ROB reads
system.cpu.rob.rob_writes                   568378289                       # The number of ROB writes
system.cpu.timesIdled                             600                       # Number of times that the entire CPU went into an idle state and unscheduled itself
system.cpu.vec_regfile_reads                  2609702                       # number of vector regfile reads
system.cpu.vec_regfile_writes                 1025763                       # number of vector regfile writes
system.cpu.workload.numSyscalls                    12                       # Number of system calls
system.membus.snoop_filter.hit_multi_requests            0                       # Number of requests hitting in the snoop filter with multiple (>1) holders of the requested data.
system.membus.snoop_filter.hit_multi_snoops            0                       # Number of snoops hitting in the snoop filter with multiple (>1) holders of the requested data.
system.membus.snoop_filter.hit_single_requests            0                       # Number of requests hitting in the snoop filter with a single holder of the requested data.
system.membus.snoop_filter.hit_single_snoops            0                       # Number of snoops hitting in the snoop filter with a single holder of the requested data.
system.membus.snoop_filter.tot_requests          3100                       # Total number of requests made to the snoop filter.
system.membus.snoop_filter.tot_snoops               0                       # Total number of snoops made to the snoop filter.
system.tol2bus.snoop_filter.hit_multi_requests            0                       # Number of requests hitting in the snoop filter with multiple (>1) holders of the requested data.
system.tol2bus.snoop_filter.hit_multi_snoops            0                       # Number of snoops hitting in the snoop filter with multiple (>1) holders of the requested data.
system.tol2bus.snoop_filter.hit_single_requests            1                       # Number of requests hitting in the snoop filter with a single holder of the requested data.
system.tol2bus.snoop_filter.hit_single_snoops            0                       # Number of snoops hitting in the snoop filter with a single holder of the requested data.
system.tol2bus.snoop_filter.tot_requests         3102                       # Total number of requests made to the snoop filter.
system.tol2bus.snoop_filter.tot_snoops              0                       # Total number of snoops made to the snoop filter.
system.membus.trans_dist::ReadResp               1012                       # Transaction distribution
system.membus.trans_dist::ReadExReq              1064                       # Transaction distribution
system.membus.trans_dist::ReadExResp             1064                       # Transaction distribution
system.membus.trans_dist::ReadSharedReq          1012                       # Transaction distribution
system.membus.trans_dist::InvalidateReq          1024                       # Transaction distribution
system.membus.pkt_count_system.l2.mem_side::system.mem_ctrls.port         5176                       # Packet count per connected master and slave (bytes)
system.membus.pkt_count::total                   5176                       # Packet count per connected master and slave (bytes)
system.membus.pkt_size_system.l2.mem_side::system.mem_ctrls.port       132864                       # Cumulative packet size per connected master and slave (bytes)
system.membus.pkt_size::total                  132864                       # Cumulative packet size per connected master and slave (bytes)
system.membus.snoops                                0                       # Total snoops (count)
system.membus.snoopTraffic                          0                       # Total snoop traffic (bytes)
system.membus.snoop_fanout::samples              3100                       # Request fanout histogram
system.membus.snoop_fanout::mean                    0                       # Request fanout histogram
system.membus.snoop_fanout::stdev                   0                       # Request fanout histogram
system.membus.snoop_fanout::underflows              0      0.00%      0.00% # Request fanout histogram
system.membus.snoop_fanout::0                    3100    100.00%    100.00% # Request fanout histogram
system.membus.snoop_fanout::1                       0      0.00%    100.00% # Request fanout histogram
system.membus.snoop_fanout::overflows               0      0.00%    100.00% # Request fanout histogram
system.membus.snoop_fanout::min_value               0                       # Request fanout histogram
system.membus.snoop_fanout::max_value               0                       # Request fanout histogram
system.membus.snoop_fanout::total                3100                       # Request fanout histogram
system.membus.reqLayer0.occupancy             3540500                       # Layer occupancy (ticks)
system.membus.reqLayer0.utilization               0.0                       # Layer utilization (%)
system.membus.respLayer1.occupancy           10955250                       # Layer occupancy (ticks)
system.membus.respLayer1.utilization              0.0                       # Layer utilization (%)
system.membus.power_state.pwrStateResidencyTicks::UNDEFINED  31115648500                       # Cumulative time (in ticks) in various power states
system.tol2bus.trans_dist::ReadResp              1013                       # Transaction distribution
system.tol2bus.trans_dist::ReadExReq             1064                       # Transaction distribution
system.tol2bus.trans_dist::ReadExResp            1064                       # Transaction distribution
system.tol2bus.trans_dist::ReadCleanReq           867                       # Transaction distribution
system.tol2bus.trans_dist::ReadSharedReq          147                       # Transaction distribution
system.tol2bus.trans_dist::InvalidateReq         1024                       # Transaction distribution
system.tol2bus.trans_dist::InvalidateResp         1024                       # Transaction distribution
system.tol2bus.pkt_count_system.cpu.icache.mem_side::system.l2.cpu_side         1733                       # Packet count per connected master and slave (bytes)
system.tol2bus.pkt_count_system.cpu.dcache.mem_side::system.l2.cpu_side         4470                       # Packet count per connected master and slave (bytes)
system.tol2bus.pkt_count::total                  6203                       # Packet count per connected master and slave (bytes)
system.tol2bus.pkt_size_system.cpu.icache.mem_side::system.l2.cpu_side        55424                       # Cumulative packet size per connected master and slave (bytes)
system.tol2bus.pkt_size_system.cpu.dcache.mem_side::system.l2.cpu_side        77504                       # Cumulative packet size per connected master and slave (bytes)
system.tol2bus.pkt_size::total                 132928                       # Cumulative packet size per connected master and slave (bytes)
system.tol2bus.snoops                               0                       # Total snoops (count)
system.tol2bus.snoopTraffic                         0                       # Total snoop traffic (bytes)
system.tol2bus.snoop_fanout::samples             3102                       # Request fanout histogram
system.tol2bus.snoop_fanout::mean            0.000322                       # Request fanout histogram
system.tol2bus.snoop_fanout::stdev           0.017955                       # Request fanout histogram
system.tol2bus.snoop_fanout::underflows             0      0.00%      0.00% # Request fanout histogram
system.tol2bus.snoop_fanout::0                   3101     99.97%     99.97% # Request fanout histogram
system.tol2bus.snoop_fanout::1                      1      0.03%    100.00% # Request fanout histogram
system.tol2bus.snoop_fanout::2                      0      0.00%    100.00% # Request fanout histogram
system.tol2bus.snoop_fanout::overflows              0      0.00%    100.00% # Request fanout histogram
system.tol2bus.snoop_fanout::min_value              0                       # Request fanout histogram
system.tol2bus.snoop_fanout::max_value              1                       # Request fanout histogram
system.tol2bus.snoop_fanout::total               3102                       # Request fanout histogram
system.tol2bus.reqLayer0.occupancy            1551000                       # Layer occupancy (ticks)
system.tol2bus.reqLayer0.utilization              0.0                       # Layer utilization (%)
system.tol2bus.respLayer1.occupancy           2328500                       # Layer occupancy (ticks)
system.tol2bus.respLayer1.utilization             0.0                       # Layer utilization (%)
system.tol2bus.respLayer0.occupancy           1299000                       # Layer occupancy (ticks)
system.tol2bus.respLayer0.utilization             0.0                       # Layer utilization (%)
system.tol2bus.power_state.pwrStateResidencyTicks::UNDEFINED  31115648500                       # Cumulative time (in ticks) in various power states
system.voltage_domain.voltage                       1                       # Voltage in Volts
system.clk_domain.clock                          1000                       # Clock period in ticks
system.l2.demand_hits::.cpu.inst                    1                       # number of demand (read+write) hits
system.l2.demand_hits::total                        1                       # number of demand (read+write) hits
system.l2.overall_hits::.cpu.inst                   1                       # number of overall hits
system.l2.overall_hits::total                       1                       # number of overall hits
system.l2.demand_misses::.cpu.inst                866                       # number of demand (read+write) misses
system.l2.demand_misses::.cpu.data               1211                       # number of demand (read+write) misses
system.l2.demand_misses::total                   2077                       # number of demand (read+write) misses
system.l2.overall_misses::.cpu.inst               866                       # number of overall misses
system.l2.overall_misses::.cpu.data              1211                       # number of overall misses
system.l2.overall_misses::total                  2077                       # number of overall misses
system.l2.demand_miss_latency::.cpu.inst     68831000                       # number of demand (read+write) miss cycles
system.l2.demand_miss_latency::.cpu.data     92532000                       # number of demand (read+write) miss cycles
system.l2.demand_miss_latency::total        161363000                       # number of demand (read+write) miss cycles
system.l2.overall_miss_latency::.cpu.inst     68831000                       # number of overall miss cycles
system.l2.overall_miss_latency::.cpu.data     92532000                       # number of overall miss cycles
system.l2.overall_miss_latency::total       161363000                       # number of overall miss cycles
system.l2.demand_accesses::.cpu.inst              867                       # number of demand (read+write) accesses
system.l2.demand_accesses::.cpu.data             1211                       # number of demand (read+write) accesses
system.l2.demand_accesses::total                 2078                       # number of demand (read+write) accesses
system.l2.overall_accesses::.cpu.inst             867                       # number of overall (read+write) accesses
system.l2.overall_accesses::.cpu.data            1211                       # number of overall (read+write) accesses
system.l2.overall_accesses::total                2078                       # number of overall (read+write) accesses
system.l2.demand_miss_rate::.cpu.inst        0.998847                       # miss rate for demand accesses
system.l2.demand_miss_rate::.cpu.data               1                       # miss rate for demand accesses
system.l2.demand_miss_rate::total            0.999519                       # miss rate for demand accesses
system.l2.overall_miss_rate::.cpu.inst       0.998847                       # miss rate for overall accesses
system.l2.overall_miss_rate::.cpu.data              1                       # miss rate for overall accesses
system.l2.overall_miss_rate::total           0.999519                       # miss rate for overall accesses
system.l2.demand_avg_miss_latency::.cpu.inst 79481.524249                       # average overall miss latency
system.l2.demand_avg_miss_latency::.cpu.data 76409.578860                       # average overall miss latency
system.l2.demand_avg_miss_latency::total 77690.418873                       # average overall miss latency
system.l2.overall_avg_miss_latency::.cpu.inst 79481.524249                       # average overall miss latency
system.l2.overall_avg_miss_latency::.cpu.data 76409.578860                       # average overall miss latency
system.l2.overall_avg_miss_latency::total 77690.418873                       # average overall miss latency
system.l2.blocked_cycles::no_mshrs                  0                       # number of cycles access was blocked
system.l2.blocked_cycles::no_targets                0                       # number of cycles access was blocked
system.l2.blocked::no_mshrs                         0                       # number of cycles access was blocked
system.l2.blocked::no_targets                       0                       # number of cycles access was blocked
system.l2.avg_blocked_cycles::no_mshrs            nan                       # average number of cycles each access was blocked
system.l2.avg_blocked_cycles::no_targets          nan                       # average number of cycles each access was blocked
system.l2.demand_mshr_misses::.cpu.inst           866                       # number of demand (read+write) MSHR misses
system.l2.demand_mshr_misses::.cpu.data          1211                       # number of demand (read+write) MSHR misses
system.l2.demand_mshr_misses::total              2077                       # number of demand (read+write) MSHR misses
system.l2.overall_mshr_misses::.cpu.inst          866                       # number of overall MSHR misses
system.l2.overall_mshr_misses::.cpu.data         1211                       # number of overall MSHR misses
system.l2.overall_mshr_misses::total             2077                       # number of overall MSHR misses
system.l2.demand_mshr_miss_latency::.cpu.inst     60180501                       # number of demand (read+write) MSHR miss cycles
system.l2.demand_mshr_miss_latency::.cpu.data     80421501                       # number of demand (read+write) MSHR miss cycles
system.l2.demand_mshr_miss_latency::total    140602002                       # number of demand (read+write) MSHR miss cycles
system.l2.overall_mshr_miss_latency::.cpu.inst     60180501                       # number of overall MSHR miss cycles
system.l2.overall_mshr_miss_latency::.cpu.data     80421501                       # number of overall MSHR miss cycles
system.l2.overall_mshr_miss_latency::total    140602002                       # number of overall MSHR miss cycles
system.l2.demand_mshr_miss_rate::.cpu.inst     0.998847                       # mshr miss rate for demand accesses
system.l2.demand_mshr_miss_rate::.cpu.data            1                       # mshr miss rate for demand accesses
system.l2.demand_mshr_miss_rate::total       0.999519                       # mshr miss rate for demand accesses
system.l2.overall_mshr_miss_rate::.cpu.inst     0.998847                       # mshr miss rate for overall accesses
system.l2.overall_mshr_miss_rate::.cpu.data            1                       # mshr miss rate for overall accesses
system.l2.overall_mshr_miss_rate::total      0.999519                       # mshr miss rate for overall accesses
system.l2.demand_avg_mshr_miss_latency::.cpu.inst 69492.495381                       # average overall mshr miss latency
system.l2.demand_avg_mshr_miss_latency::.cpu.data 66409.166804                       # average overall mshr miss latency
system.l2.demand_avg_mshr_miss_latency::total 67694.753009                       # average overall mshr miss latency
system.l2.overall_avg_mshr_miss_latency::.cpu.inst 69492.495381                       # average overall mshr miss latency
system.l2.overall_avg_mshr_miss_latency::.cpu.data 66409.166804                       # average overall mshr miss latency
system.l2.overall_avg_mshr_miss_latency::total 67694.753009                       # average overall mshr miss latency
system.l2.replacements                              0                       # number of replacements
system.l2.ReadExReq_misses::.cpu.data            1064                       # number of ReadExReq misses
system.l2.ReadExReq_misses::total                1064                       # number of ReadExReq misses
system.l2.ReadExReq_miss_latency::.cpu.data     80043000                       # number of ReadExReq miss cycles
system.l2.ReadExReq_miss_latency::total      80043000                       # number of ReadExReq miss cycles
system.l2.ReadExReq_accesses::.cpu.data          1064                       # number of ReadExReq accesses(hits+misses)
system.l2.ReadExReq_accesses::total              1064                       # number of ReadExReq accesses(hits+misses)
system.l2.ReadExReq_miss_rate::.cpu.data            1                       # miss rate for ReadExReq accesses
system.l2.ReadExReq_miss_rate::total                1                       # miss rate for ReadExReq accesses
system.l2.ReadExReq_avg_miss_latency::.cpu.data 75228.383459                       # average ReadExReq miss latency
system.l2.ReadExReq_avg_miss_latency::total 75228.383459                       # average ReadExReq miss latency
system.l2.ReadExReq_mshr_misses::.cpu.data         1064                       # number of ReadExReq MSHR misses
system.l2.ReadExReq_mshr_misses::total           1064                       # number of ReadExReq MSHR misses
system.l2.ReadExReq_mshr_miss_latency::.cpu.data     69402501                       # number of ReadExReq MSHR miss cycles
system.l2.ReadExReq_mshr_miss_latency::total     69402501                       # number of ReadExReq MSHR miss cycles
system.l2.ReadExReq_mshr_miss_rate::.cpu.data            1                       # mshr miss rate for ReadExReq accesses
system.l2.ReadExReq_mshr_miss_rate::total            1                       # mshr miss rate for ReadExReq accesses
system.l2.ReadExReq_avg_mshr_miss_latency::.cpu.data 65227.914474                       # average ReadExReq mshr miss latency
system.l2.ReadExReq_avg_mshr_miss_latency::total 65227.914474                       # average ReadExReq mshr miss latency
system.l2.ReadCleanReq_hits::.cpu.inst              1                       # number of ReadCleanReq hits
system.l2.ReadCleanReq_hits::total                  1                       # number of ReadCleanReq hits
system.l2.ReadCleanReq_misses::.cpu.inst          866                       # number of ReadCleanReq misses
system.l2.ReadCleanReq_misses::total              866                       # number of ReadCleanReq misses
system.l2.ReadCleanReq_miss_latency::.cpu.inst     68831000                       # number of ReadCleanReq miss cycles
system.l2.ReadCleanReq_miss_latency::total     68831000                       # number of ReadCleanReq miss cycles
system.l2.ReadCleanReq_accesses::.cpu.inst          867                       # number of ReadCleanReq accesses(hits+misses)
system.l2.ReadCleanReq_accesses::total            867                       # number of ReadCleanReq accesses(hits+misses)
system.l2.ReadCleanReq_miss_rate::.cpu.inst     0.998847                       # miss rate for ReadCleanReq accesses
system.l2.ReadCleanReq_miss_rate::total      0.998847                       # miss rate for ReadCleanReq accesses
system.l2.ReadCleanReq_avg_miss_latency::.cpu.inst 79481.524249                       # average ReadCleanReq miss latency
system.l2.ReadCleanReq_avg_miss_latency::total 79481.524249                       # average ReadCleanReq miss latency
system.l2.ReadCleanReq_mshr_misses::.cpu.inst          866                       # number of ReadCleanReq MSHR misses
system.l2.ReadCleanReq_mshr_misses::total          866                       # number of ReadCleanReq MSHR misses
system.l2.ReadCleanReq_mshr_miss_latency::.cpu.inst     60180501                       # number of ReadCleanReq MSHR miss cycles
system.l2.ReadCleanReq_mshr_miss_latency::total     60180501                       # number of ReadCleanReq MSHR miss cycles
system.l2.ReadCleanReq_mshr_miss_rate::.cpu.inst     0.998847                       # mshr miss rate for ReadCleanReq accesses
system.l2.ReadCleanReq_mshr_miss_rate::total     0.998847                       # mshr miss rate for ReadCleanReq accesses
system.l2.ReadCleanReq_avg_mshr_miss_latency::.cpu.inst 69492.495381                       # average ReadCleanReq mshr miss latency
system.l2.ReadCleanReq_avg_mshr_miss_latency::total 69492.495381                       # average ReadCleanReq mshr miss latency
system.l2.ReadSharedReq_misses::.cpu.data          147                       # number of ReadSharedReq misses
system.l2.ReadSharedReq_misses::total             147                       # number of ReadSharedReq misses
system.l2.ReadSharedReq_miss_latency::.cpu.data     12489000                       # number of ReadSharedReq miss cycles
system.l2.ReadSharedReq_miss_latency::total     12489000                       # number of ReadSharedReq miss cycles
system.l2.ReadSharedReq_accesses::.cpu.data          147                       # number of ReadSharedReq accesses(hits+misses)
system.l2.ReadSharedReq_accesses::total           147                       # number of ReadSharedReq accesses(hits+misses)
system.l2.ReadSharedReq_miss_rate::.cpu.data            1                       # miss rate for ReadSharedReq accesses
system.l2.ReadSharedReq_miss_rate::total            1                       # miss rate for ReadSharedReq accesses
system.l2.ReadSharedReq_avg_miss_latency::.cpu.data 84959.183673                       # average ReadSharedReq miss latency
system.l2.ReadSharedReq_avg_miss_latency::total 84959.183673                       # average ReadSharedReq miss latency
system.l2.ReadSharedReq_mshr_misses::.cpu.data          147                       # number of ReadSharedReq MSHR misses
system.l2.ReadSharedReq_mshr_misses::total          147                       # number of ReadSharedReq MSHR misses
system.l2.ReadSharedReq_mshr_miss_latency::.cpu.data     11019000                       # number of ReadSharedReq MSHR miss cycles
system.l2.ReadSharedReq_mshr_miss_latency::total     11019000                       # number of ReadSharedReq MSHR miss cycles
[...]
system.cpu.dcache.overall_hits::total        83972116                       # number of overall hits
system.cpu.dcache.demand_misses::.cpu.data        12408                       # number of demand (read+write) misses
system.cpu.dcache.demand_misses::total          12408                       # number of demand (read+write) misses
system.cpu.dcache.overall_misses::.cpu.data        12410                       # number of overall misses
system.cpu.dcache.overall_misses::total         12410                       # number of overall misses
system.cpu.dcache.demand_miss_latency::.cpu.data    817315530                       # number of demand (read+write) miss cycles
system.cpu.dcache.demand_miss_latency::total    817315530                       # number of demand (read+write) miss cycles
system.cpu.dcache.overall_miss_latency::.cpu.data    817315530                       # number of overall miss cycles
system.cpu.dcache.overall_miss_latency::total    817315530                       # number of overall miss cycles
system.cpu.dcache.demand_accesses::.cpu.data     83984470                       # number of demand (read+write) accesses
system.cpu.dcache.demand_accesses::total     83984470                       # number of demand (read+write) accesses
system.cpu.dcache.overall_accesses::.cpu.data     83984526                       # number of overall (read+write) accesses
system.cpu.dcache.overall_accesses::total     83984526                       # number of overall (read+write) accesses
system.cpu.dcache.demand_miss_rate::.cpu.data     0.000148                       # miss rate for demand accesses
system.cpu.dcache.demand_miss_rate::total     0.000148                       # miss rate for demand accesses
system.cpu.dcache.overall_miss_rate::.cpu.data     0.000148                       # miss rate for overall accesses
system.cpu.dcache.overall_miss_rate::total     0.000148                       # miss rate for overall accesses
system.cpu.dcache.demand_avg_miss_latency::.cpu.data 65870.045938                       # average overall miss latency
system.cpu.dcache.demand_avg_miss_latency::total 65870.045938                       # average overall miss latency
system.cpu.dcache.overall_avg_miss_latency::.cpu.data 65859.430298                       # average overall miss latency
system.cpu.dcache.overall_avg_miss_latency::total 65859.430298                       # average overall miss latency
system.cpu.dcache.blocked_cycles::no_mshrs        21918                       # number of cycles access was blocked
system.cpu.dcache.blocked_cycles::no_targets            0                       # number of cycles access was blocked
system.cpu.dcache.blocked::no_mshrs              1161                       # number of cycles access was blocked
system.cpu.dcache.blocked::no_targets               0                       # number of cycles access was blocked
system.cpu.dcache.avg_blocked_cycles::no_mshrs    18.878553                       # average number of cycles each access was blocked
system.cpu.dcache.avg_blocked_cycles::no_targets          nan                       # average number of cycles each access was blocked
system.cpu.dcache.demand_mshr_hits::.cpu.data        10175                       # number of demand (read+write) MSHR hits
system.cpu.dcache.demand_mshr_hits::total        10175                       # number of demand (read+write) MSHR hits
system.cpu.dcache.overall_mshr_hits::.cpu.data        10175                       # number of overall MSHR hits
system.cpu.dcache.overall_mshr_hits::total        10175                       # number of overall MSHR hits
system.cpu.dcache.demand_mshr_misses::.cpu.data         2233                       # number of demand (read+write) MSHR misses
system.cpu.dcache.demand_mshr_misses::total         2233                       # number of demand (read+write) MSHR misses
system.cpu.dcache.overall_mshr_misses::.cpu.data         2235                       # number of overall MSHR misses
system.cpu.dcache.overall_mshr_misses::total         2235                       # number of overall MSHR misses
system.cpu.dcache.demand_mshr_miss_latency::.cpu.data    125932667                       # number of demand (read+write) MSHR miss cycles
system.cpu.dcache.demand_mshr_miss_latency::total    125932667                       # number of demand (read+write) MSHR miss cycles
system.cpu.dcache.overall_mshr_miss_latency::.cpu.data    126095167                       # number of overall MSHR miss cycles
system.cpu.dcache.overall_mshr_miss_latency::total    126095167                       # number of overall MSHR miss cycles
system.cpu.dcache.demand_mshr_miss_rate::.cpu.data     0.000027                       # mshr miss rate for demand accesses
system.cpu.dcache.demand_mshr_miss_rate::total     0.000027                       # mshr miss rate for demand accesses
system.cpu.dcache.overall_mshr_miss_rate::.cpu.data     0.000027                       # mshr miss rate for overall accesses
system.cpu.dcache.overall_mshr_miss_rate::total     0.000027                       # mshr miss rate for overall accesses
system.cpu.dcache.demand_avg_mshr_miss_latency::.cpu.data 56396.178683                       # average overall mshr miss latency
system.cpu.dcache.demand_avg_mshr_miss_latency::total 56396.178683                       # average overall mshr miss latency
system.cpu.dcache.overall_avg_mshr_miss_latency::.cpu.data 56418.419239                       # average overall mshr miss latency
system.cpu.dcache.overall_avg_mshr_miss_latency::total 56418.419239                       # average overall mshr miss latency
system.cpu.dcache.replacements                      0                       # number of replacements
system.cpu.dcache.ReadReq_hits::.cpu.data     68760288                       # number of ReadReq hits
system.cpu.dcache.ReadReq_hits::total        68760288                       # number of ReadReq hits
system.cpu.dcache.ReadReq_misses::.cpu.data          331                       # number of ReadReq misses
system.cpu.dcache.ReadReq_misses::total           331                       # number of ReadReq misses
system.cpu.dcache.ReadReq_miss_latency::.cpu.data     24350000                       # number of ReadReq miss cycles
system.cpu.dcache.ReadReq_miss_latency::total     24350000                       # number of ReadReq miss cycles
system.cpu.dcache.ReadReq_accesses::.cpu.data     68760619                       # number of ReadReq accesses(hits+misses)
system.cpu.dcache.ReadReq_accesses::total     68760619                       # number of ReadReq accesses(hits+misses)
system.cpu.dcache.ReadReq_miss_rate::.cpu.data     0.000005                       # miss rate for ReadReq accesses
system.cpu.dcache.ReadReq_miss_rate::total     0.000005                       # miss rate for ReadReq accesses
system.cpu.dcache.ReadReq_avg_miss_latency::.cpu.data 73564.954683                       # average ReadReq miss latency
system.cpu.dcache.ReadReq_avg_miss_latency::total 73564.954683                       # average ReadReq miss latency
system.cpu.dcache.ReadReq_mshr_hits::.cpu.data          186                       # number of ReadReq MSHR hits
system.cpu.dcache.ReadReq_mshr_hits::total          186                       # number of ReadReq MSHR hits
system.cpu.dcache.ReadReq_mshr_misses::.cpu.data          145                       # number of ReadReq MSHR misses
system.cpu.dcache.ReadReq_mshr_misses::total          145                       # number of ReadReq MSHR misses
system.cpu.dcache.ReadReq_mshr_miss_latency::.cpu.data     12550000                       # number of ReadReq MSHR miss cycles
system.cpu.dcache.ReadReq_mshr_miss_latency::total     12550000                       # number of ReadReq MSHR miss cycles
system.cpu.dcache.ReadReq_mshr_miss_rate::.cpu.data     0.000002                       # mshr miss rate for ReadReq accesses
system.cpu.dcache.ReadReq_mshr_miss_rate::total     0.000002                       # mshr miss rate for ReadReq accesses
system.cpu.dcache.ReadReq_avg_mshr_miss_latency::.cpu.data 86551.724138                       # average ReadReq mshr miss latency
system.cpu.dcache.ReadReq_avg_mshr_miss_latency::total 86551.724138                       # average ReadReq mshr miss latency
system.cpu.dcache.WriteReq_hits::.cpu.data     15204416                       # number of WriteReq hits
system.cpu.dcache.WriteReq_hits::total       15204416                       # number of WriteReq hits
system.cpu.dcache.WriteReq_misses::.cpu.data        11054                       # number of WriteReq misses
system.cpu.dcache.WriteReq_misses::total        11054                       # number of WriteReq misses
system.cpu.dcache.WriteReq_miss_latency::.cpu.data    760234359                       # number of WriteReq miss cycles
system.cpu.dcache.WriteReq_miss_latency::total    760234359                       # number of WriteReq miss cycles
system.cpu.dcache.WriteReq_accesses::.cpu.data     15215470                       # number of WriteReq accesses(hits+misses)
system.cpu.dcache.WriteReq_accesses::total     15215470                       # number of WriteReq accesses(hits+misses)
system.cpu.dcache.WriteReq_miss_rate::.cpu.data     0.000726                       # miss rate for WriteReq accesses
system.cpu.dcache.WriteReq_miss_rate::total     0.000726                       # miss rate for WriteReq accesses
system.cpu.dcache.WriteReq_avg_miss_latency::.cpu.data 68774.593722                       # average WriteReq miss latency
system.cpu.dcache.WriteReq_avg_miss_latency::total 68774.593722                       # average WriteReq miss latency
system.cpu.dcache.WriteReq_mshr_hits::.cpu.data         9989                       # number of WriteReq MSHR hits
system.cpu.dcache.WriteReq_mshr_hits::total         9989                       # number of WriteReq MSHR hits
system.cpu.dcache.WriteReq_mshr_misses::.cpu.data         1065                       # number of WriteReq MSHR misses
system.cpu.dcache.WriteReq_mshr_misses::total         1065                       # number of WriteReq MSHR misses
system.cpu.dcache.WriteReq_mshr_miss_latency::.cpu.data     81674496                       # number of WriteReq MSHR miss cycles
system.cpu.dcache.WriteReq_mshr_miss_latency::total     81674496                       # number of WriteReq MSHR miss cycles
system.cpu.dcache.WriteReq_mshr_miss_rate::.cpu.data     0.000070                       # mshr miss rate for WriteReq accesses
system.cpu.dcache.WriteReq_mshr_miss_rate::total     0.000070                       # mshr miss rate for WriteReq accesses
system.cpu.dcache.WriteReq_avg_mshr_miss_latency::.cpu.data 76689.667606                       # average WriteReq mshr miss latency
system.cpu.dcache.WriteReq_avg_mshr_miss_latency::total 76689.667606                       # average WriteReq mshr miss latency
system.cpu.dcache.SoftPFReq_hits::.cpu.data           54                       # number of SoftPFReq hits
system.cpu.dcache.SoftPFReq_hits::total            54                       # number of SoftPFReq hits
system.cpu.dcache.SoftPFReq_misses::.cpu.data            2                       # number of SoftPFReq misses
system.cpu.dcache.SoftPFReq_misses::total            2                       # number of SoftPFReq misses
system.cpu.dcache.SoftPFReq_accesses::.cpu.data           56                       # number of SoftPFReq accesses(hits+misses)
system.cpu.dcache.SoftPFReq_accesses::total           56                       # number of SoftPFReq accesses(hits+misses)
system.cpu.dcache.SoftPFReq_miss_rate::.cpu.data     0.035714                       # miss rate for SoftPFReq accesses
system.cpu.dcache.SoftPFReq_miss_rate::total     0.035714                       # miss rate for SoftPFReq accesses
system.cpu.dcache.SoftPFReq_mshr_misses::.cpu.data            2                       # number of SoftPFReq MSHR misses
system.cpu.dcache.SoftPFReq_mshr_misses::total            2                       # number of SoftPFReq MSHR misses
system.cpu.dcache.SoftPFReq_mshr_miss_latency::.cpu.data       162500                       # number of SoftPFReq MSHR miss cycles
system.cpu.dcache.SoftPFReq_mshr_miss_latency::total       162500                       # number of SoftPFReq MSHR miss cycles
system.cpu.dcache.SoftPFReq_mshr_miss_rate::.cpu.data     0.035714                       # mshr miss rate for SoftPFReq accesses
system.cpu.dcache.SoftPFReq_mshr_miss_rate::total     0.035714                       # mshr miss rate for SoftPFReq accesses
system.cpu.dcache.SoftPFReq_avg_mshr_miss_latency::.cpu.data        81250                       # average SoftPFReq mshr miss latency
system.cpu.dcache.SoftPFReq_avg_mshr_miss_latency::total        81250                       # average SoftPFReq mshr miss latency
system.cpu.dcache.WriteLineReq_hits::.cpu.data         7358                       # number of WriteLineReq hits
system.cpu.dcache.WriteLineReq_hits::total         7358                       # number of WriteLineReq hits
system.cpu.dcache.WriteLineReq_misses::.cpu.data         1023                       # number of WriteLineReq misses
system.cpu.dcache.WriteLineReq_misses::total         1023                       # number of WriteLineReq misses
system.cpu.dcache.WriteLineReq_miss_latency::.cpu.data     32731171                       # number of WriteLineReq miss cycles
system.cpu.dcache.WriteLineReq_miss_latency::total     32731171                       # number of WriteLineReq miss cycles
system.cpu.dcache.WriteLineReq_accesses::.cpu.data         8381                       # number of WriteLineReq accesses(hits+misses)
system.cpu.dcache.WriteLineReq_accesses::total         8381                       # number of WriteLineReq accesses(hits+misses)
system.cpu.dcache.WriteLineReq_miss_rate::.cpu.data     0.122062                       # miss rate for WriteLineReq accesses
system.cpu.dcache.WriteLineReq_miss_rate::total     0.122062                       # miss rate for WriteLineReq accesses
system.cpu.dcache.WriteLineReq_avg_miss_latency::.cpu.data 31995.279570                       # average WriteLineReq miss latency
system.cpu.dcache.WriteLineReq_avg_miss_latency::total 31995.279570                       # average WriteLineReq miss latency
system.cpu.dcache.WriteLineReq_mshr_misses::.cpu.data         1023                       # number of WriteLineReq MSHR misses
system.cpu.dcache.WriteLineReq_mshr_misses::total         1023                       # number of WriteLineReq MSHR misses
system.cpu.dcache.WriteLineReq_mshr_miss_latency::.cpu.data     31708171                       # number of WriteLineReq MSHR miss cycles
system.cpu.dcache.WriteLineReq_mshr_miss_latency::total     31708171                       # number of WriteLineReq MSHR miss cycles
system.cpu.dcache.WriteLineReq_mshr_miss_rate::.cpu.data     0.122062                       # mshr miss rate for WriteLineReq accesses
system.cpu.dcache.WriteLineReq_mshr_miss_rate::total     0.122062                       # mshr miss rate for WriteLineReq accesses
system.cpu.dcache.WriteLineReq_avg_mshr_miss_latency::.cpu.data 30995.279570                       # average WriteLineReq mshr miss latency
system.cpu.dcache.WriteLineReq_avg_mshr_miss_latency::total 30995.279570                       # average WriteLineReq mshr miss latency
system.cpu.dcache.LoadLockedReq_hits::.cpu.data          215                       # number of LoadLockedReq hits
system.cpu.dcache.LoadLockedReq_hits::total          215                       # number of LoadLockedReq hits
system.cpu.dcache.LoadLockedReq_misses::.cpu.data            1                       # number of LoadLockedReq misses
system.cpu.dcache.LoadLockedReq_misses::total            1                       # number of LoadLockedReq misses
system.cpu.dcache.LoadLockedReq_miss_latency::.cpu.data        76500                       # number of LoadLockedReq miss cycles
system.cpu.dcache.LoadLockedReq_miss_latency::total        76500                       # number of LoadLockedReq miss cycles
system.cpu.dcache.LoadLockedReq_accesses::.cpu.data          216                       # number of LoadLockedReq accesses(hits+misses)
system.cpu.dcache.LoadLockedReq_accesses::total          216                       # number of LoadLockedReq accesses(hits+misses)
system.cpu.dcache.LoadLockedReq_miss_rate::.cpu.data     0.004630                       # miss rate for LoadLockedReq accesses
system.cpu.dcache.LoadLockedReq_miss_rate::total     0.004630                       # miss rate for LoadLockedReq accesses
system.cpu.dcache.LoadLockedReq_avg_miss_latency::.cpu.data        76500                       # average LoadLockedReq miss latency
system.cpu.dcache.LoadLockedReq_avg_miss_latency::total        76500                       # average LoadLockedReq miss latency
system.cpu.dcache.LoadLockedReq_mshr_hits::.cpu.data            1                       # number of LoadLockedReq MSHR hits
system.cpu.dcache.LoadLockedReq_mshr_hits::total            1                       # number of LoadLockedReq MSHR hits
system.cpu.dcache.StoreCondReq_hits::.cpu.data          180                       # number of StoreCondReq hits
system.cpu.dcache.StoreCondReq_hits::total          180                       # number of StoreCondReq hits
system.cpu.dcache.StoreCondReq_accesses::.cpu.data          180                       # number of StoreCondReq accesses(hits+misses)
system.cpu.dcache.StoreCondReq_accesses::total          180                       # number of StoreCondReq accesses(hits+misses)
system.cpu.dcache.power_state.pwrStateResidencyTicks::UNDEFINED  31115648500                       # Cumulative time (in ticks) in various power states
system.cpu.dcache.tags.tagsinuse          1374.055120                       # Cycle average of tags in use
system.cpu.dcache.tags.total_refs            83974746                       # Total number of references to valid blocks.
system.cpu.dcache.tags.sampled_refs              2235                       # Sample count of references to valid blocks.
system.cpu.dcache.tags.avg_refs          37572.593289                       # Average number of references to valid blocks.
system.cpu.dcache.tags.warmup_cycle            176500                       # Cycle when the warmup percentage was hit.
system.cpu.dcache.tags.occ_blocks::.cpu.data  1374.055120                       # Average occupied blocks per requestor
system.cpu.dcache.tags.occ_percent::.cpu.data     0.335463                       # Average percentage of cache occupancy
system.cpu.dcache.tags.occ_percent::total     0.335463                       # Average percentage of cache occupancy
system.cpu.dcache.tags.occ_task_id_blocks::1024         2235                       # Occupied blocks per task id
system.cpu.dcache.tags.age_task_id_blocks_1024::0           23                       # Occupied blocks per task id
system.cpu.dcache.tags.age_task_id_blocks_1024::1          264                       # Occupied blocks per task id
system.cpu.dcache.tags.age_task_id_blocks_1024::2          120                       # Occupied blocks per task id
system.cpu.dcache.tags.age_task_id_blocks_1024::3          482                       # Occupied blocks per task id
system.cpu.dcache.tags.age_task_id_blocks_1024::4         1346                       # Occupied blocks per task id
system.cpu.dcache.tags.occ_task_id_percent::1024     0.545654                       # Percentage of cache occupancy per task id
system.cpu.dcache.tags.tag_accesses         671881611                       # Number of tag accesses
system.cpu.dcache.tags.data_accesses        671881611                       # Number of data accesses
system.cpu.dcache.tags.power_state.pwrStateResidencyTicks::UNDEFINED  31115648500                       # Cumulative time (in ticks) in various power states
system.cpu.power_state.pwrStateResidencyTicks::ON  31115648500                       # Cumulative time (in ticks) in various power states

---------- End Simulation Statistics   ----------
