
---------- Begin Simulation Statistics ----------
final_tick                                11426272000                       # Number of ticks from beginning of simulation (restored from checkpoints and never reset)
host_inst_rate                                 250888                       # Simulator instruction rate (inst/s)
host_mem_usage                                 846932                       # Number of bytes of host memory used
host_op_rate                                   254711                       # Simulator op (including micro ops) rate (op/s)
host_seconds                                   398.59                       # Real time elapsed on the host
host_tick_rate                               28667074                       # Simulator tick rate (ticks/s)
sim_freq                                 1000000000000                       # Frequency of simulated ticks
sim_insts                                   100000002                       # Number of instructions simulated
sim_ops                                     101523851                       # Number of ops (including micro ops) simulated
sim_seconds                                  0.011426                       # Number of seconds simulated
sim_ticks                                 11426272000                       # Number of ticks simulated
system.cpu.branchPred.BTBCorrect                    0                       # Number of correct BTB predictions (this stat may not work properly.
system.cpu.branchPred.BTBHitPct             99.990517                       # BTB Hit Percentage
system.cpu.branchPred.BTBHits                13169906                       # Number of BTB hits
system.cpu.branchPred.BTBLookups             13171155                       # Number of BTB lookups
system.cpu.branchPred.RASInCorrect                  0                       # Number of incorrect RAS predictions.
system.cpu.branchPred.condIncorrect             59919                       # Number of conditional branches incorrect
system.cpu.branchPred.condPredicted          20557877                       # Number of conditional branches predicted
system.cpu.branchPred.indirectHits                 15                       # Number of indirect target hits.
system.cpu.branchPred.indirectLookups             238                       # Number of indirect predictor lookups.
system.cpu.branchPred.indirectMisses              223                       # Number of indirect misses.
system.cpu.branchPred.lookups                20808820                       # Number of BP lookups
system.cpu.branchPred.usedRAS                  115803                       # Number of times the RAS was used to get a target.
system.cpu.branchPredindirectMispredicted           57                       # Number of mispredicted indirect branches.
system.cpu.cc_regfile_reads                  58100298                       # number of cc regfile reads
system.cpu.cc_regfile_writes                 58344506                       # number of cc regfile writes
system.cpu.commit.amos                              0                       # Number of atomic instructions committed
system.cpu.commit.branchMispredicts             59531                       # The number of times a branch was mispredicted
system.cpu.commit.branches                   19470324                       # Number of branches committed
system.cpu.commit.bw_lim_events               8721609                       # number cycles where commit BW limit reached
system.cpu.commit.commitNonSpecStalls              56                       # The number of times commit has been forced to stall to communicate backwards
system.cpu.commit.commitSquashedInsts         3342114                       # The number of squashed insts skipped by commit
system.cpu.commit.committedInsts            100000186                       # Number of instructions committed
system.cpu.commit.committedOps              101524035                       # Number of ops (including micro ops) committed
system.cpu.commit.committed_per_cycle::samples     22362098                       # Number of insts commited each cycle
system.cpu.commit.committed_per_cycle::mean     4.540005                       # Number of insts commited each cycle
system.cpu.commit.committed_per_cycle::stdev     3.277563                       # Number of insts commited each cycle
system.cpu.commit.committed_per_cycle::underflows            0      0.00%      0.00% # Number of insts commited each cycle
system.cpu.commit.committed_per_cycle::0      1447684      6.47%      6.47% # Number of insts commited each cycle
system.cpu.commit.committed_per_cycle::1      5587479     24.99%     31.46% # Number of insts commited each cycle
system.cpu.commit.committed_per_cycle::2      3444556     15.40%     46.86% # Number of insts commited each cycle
system.cpu.commit.committed_per_cycle::3       391683      1.75%     48.62% # Number of insts commited each cycle
system.cpu.commit.committed_per_cycle::4       172570      0.77%     49.39% # Number of insts commited each cycle
system.cpu.commit.committed_per_cycle::5        20621      0.09%     49.48% # Number of insts commited each cycle
system.cpu.commit.committed_per_cycle::6       725134      3.24%     52.72% # Number of insts commited each cycle
system.cpu.commit.committed_per_cycle::7      1850762      8.28%     61.00% # Number of insts commited each cycle
system.cpu.commit.committed_per_cycle::8      8721609     39.00%    100.00% # Number of insts commited each cycle
system.cpu.commit.committed_per_cycle::overflows            0      0.00%    100.00% # Number of insts commited each cycle
system.cpu.commit.committed_per_cycle::min_value            0                       # Number of insts commited each cycle
system.cpu.commit.committed_per_cycle::max_value            8                       # Number of insts commited each cycle
system.cpu.commit.committed_per_cycle::total     22362098                       # Number of insts commited each cycle
system.cpu.commit.fp_insts                          0                       # Number of committed floating point instructions.
system.cpu.commit.function_calls               114101                       # Number of function calls committed.
system.cpu.commit.int_insts                  82432146                       # Number of committed integer instructions.
system.cpu.commit.loads                      25952766                       # Number of loads committed
system.cpu.commit.membars                          48                       # Number of memory barriers committed
system.cpu.commit.op_class_0::No_OpClass           10      0.00%      0.00% # Class of committed instruction
system.cpu.commit.op_class_0::IntAlu         69620133     68.58%     68.58% # Class of committed instruction
system.cpu.commit.op_class_0::IntMult            6378      0.01%     68.58% # Class of committed instruction
system.cpu.commit.op_class_0::IntDiv              136      0.00%     68.58% # Class of committed instruction
system.cpu.commit.op_class_0::FloatAdd           4094      0.00%     68.59% # Class of committed instruction
system.cpu.commit.op_class_0::FloatCmp          16376      0.02%     68.60% # Class of committed instruction
system.cpu.commit.op_class_0::FloatCvt           6163      0.01%     68.61% # Class of committed instruction
system.cpu.commit.op_class_0::FloatMult         22517      0.02%     68.63% # Class of committed instruction
system.cpu.commit.op_class_0::FloatMultAcc        22517      0.02%     68.65% # Class of committed instruction
system.cpu.commit.op_class_0::FloatDiv             22      0.00%     68.65% # Class of committed instruction
system.cpu.commit.op_class_0::FloatMisc          2070      0.00%     68.65% # Class of committed instruction
system.cpu.commit.op_class_0::FloatSqrt             0      0.00%     68.65% # Class of committed instruction
system.cpu.commit.op_class_0::SimdAdd              32      0.00%     68.65% # Class of committed instruction
system.cpu.commit.op_class_0::SimdAddAcc            0      0.00%     68.65% # Class of committed instruction
system.cpu.commit.op_class_0::SimdAlu              37      0.00%     68.65% # Class of committed instruction
system.cpu.commit.op_class_0::SimdCmp              40      0.00%     68.65% # Class of committed instruction
system.cpu.commit.op_class_0::SimdCvt               0      0.00%     68.65% # Class of committed instruction
system.cpu.commit.op_class_0::SimdMisc           2082      0.00%     68.66% # Class of committed instruction
system.cpu.commit.op_class_0::SimdMult              0      0.00%     68.66% # Class of committed instruction
system.cpu.commit.op_class_0::SimdMultAcc            0      0.00%     68.66% # Class of committed instruction
system.cpu.commit.op_class_0::SimdShift             0      0.00%     68.66% # Class of committed instruction
system.cpu.commit.op_class_0::SimdShiftAcc            0      0.00%     68.66% # Class of committed instruction
system.cpu.commit.op_class_0::SimdDiv               0      0.00%     68.66% # Class of committed instruction
system.cpu.commit.op_class_0::SimdSqrt              0      0.00%     68.66% # Class of committed instruction
system.cpu.commit.op_class_0::SimdFloatAdd            0      0.00%     68.66% # Class of committed instruction
system.cpu.commit.op_class_0::SimdFloatAlu            0      0.00%     68.66% # Class of committed instruction
system.cpu.commit.op_class_0::SimdFloatCmp            0      0.00%     68.66% # Class of committed instruction
system.cpu.commit.op_class_0::SimdFloatCvt            0      0.00%     68.66% # Class of committed instruction
system.cpu.commit.op_class_0::SimdFloatDiv            0      0.00%     68.66% # Class of committed instruction
system.cpu.commit.op_class_0::SimdFloatMisc            0      0.00%     68.66% # Class of committed instruction
system.cpu.commit.op_class_0::SimdFloatMult            0      0.00%     68.66% # Class of committed instruction
system.cpu.commit.op_class_0::SimdFloatMultAcc            0      0.00%     68.66% # Class of committed instruction
system.cpu.commit.op_class_0::SimdFloatSqrt            0      0.00%     68.66% # Class of committed instruction
system.cpu.commit.op_class_0::SimdReduceAdd            0      0.00%     68.66% # Class of committed instruction
system.cpu.commit.op_class_0::SimdReduceAlu            0      0.00%     68.66% # Class of committed instruction
system.cpu.commit.op_class_0::SimdReduceCmp            0      0.00%     68.66% # Class of committed instruction
system.cpu.commit.op_class_0::SimdFloatReduceAdd            0      0.00%     68.66% # Class of committed instruction
system.cpu.commit.op_class_0::SimdFloatReduceCmp            0      0.00%     68.66% # Class of committed instruction
system.cpu.commit.op_class_0::SimdAes               0      0.00%     68.66% # Class of committed instruction
system.cpu.commit.op_class_0::SimdAesMix            0      0.00%     68.66% # Class of committed instruction
system.cpu.commit.op_class_0::SimdSha1Hash            0      0.00%     68.66% # Class of committed instruction
system.cpu.commit.op_class_0::SimdSha1Hash2            0      0.00%     68.66% # Class of committed instruction
system.cpu.commit.op_class_0::SimdSha256Hash            0      0.00%     68.66% # Class of committed instruction
system.cpu.commit.op_class_0::SimdSha256Hash2            0      0.00%     68.66% # Class of committed instruction
system.cpu.commit.op_class_0::SimdShaSigma2            0      0.00%     68.66% # Class of committed instruction
system.cpu.commit.op_class_0::SimdShaSigma3            0      0.00%     68.66% # Class of committed instruction
system.cpu.commit.op_class_0::SimdPredAlu            0      0.00%     68.66% # Class of committed instruction
system.cpu.commit.op_class_0::MemRead        25952766     25.56%     94.22% # Class of committed instruction
system.cpu.commit.op_class_0::MemWrite        5868662      5.78%    100.00% # Class of committed instruction
system.cpu.commit.op_class_0::FloatMemRead            0      0.00%    100.00% # Class of committed instruction
system.cpu.commit.op_class_0::FloatMemWrite            0      0.00%    100.00% # Class of committed instruction
system.cpu.commit.op_class_0::IprAccess             0      0.00%    100.00% # Class of committed instruction
system.cpu.commit.op_class_0::InstPrefetch            0      0.00%    100.00% # Class of committed instruction
system.cpu.commit.op_class_0::total         101524035                       # Class of committed instruction
system.cpu.commit.refs                       31821428                       # Number of memory references committed
system.cpu.commit.swp_count                         0                       # Number of s/w prefetches committed
system.cpu.commit.vec_insts                    486019                       # Number of committed Vector instructions.
system.cpu.committedInsts                   100000002                       # Number of Instructions Simulated
system.cpu.committedOps                     101523851                       # Number of Ops (including micro ops) Simulated
system.cpu.cpi                               0.228525                       # CPI: Cycles Per Instruction
system.cpu.cpi_total                         0.228525                       # CPI: Total CPI of All Threads
system.cpu.decode.BlockedCycles                902698                       # Number of cycles decode is blocked
system.cpu.decode.BranchMispred                   396                       # Number of times decode detected a branch misprediction
system.cpu.decode.BranchResolved             13010214                       # Number of times decode resolved a branch
system.cpu.decode.DecodedInsts              105965369                       # Number of instructions handled by decode
system.cpu.decode.IdleCycles                  3441605                       # Number of cycles decode is idle
system.cpu.decode.RunCycles                  17850249                       # Number of cycles decode is running
system.cpu.decode.SquashCycles                  59689                       # Number of cycles decode is squashing
system.cpu.decode.SquashedInsts                  1438                       # Number of squashed instructions handled by decode
system.cpu.decode.UnblockCycles                549628                       # Number of cycles decode is unblocking
system.cpu.dtb.accesses                             0                       # DTB accesses
system.cpu.dtb.align_faults                         0                       # Number of TLB faults due to alignment restrictions
system.cpu.dtb.domain_faults                        0                       # Number of TLB faults due to domain restrictions
system.cpu.dtb.flush_entries                        0                       # Number of entries that have been flushed from TLB
system.cpu.dtb.flush_tlb                            0                       # Number of times complete TLB was flushed
system.cpu.dtb.flush_tlb_asid                       0                       # Number of times TLB was flushed by ASID
system.cpu.dtb.flush_tlb_mva                        0                       # Number of times TLB was flushed by MVA
system.cpu.dtb.flush_tlb_mva_asid                   0                       # Number of times TLB was flushed by MVA & ASID
system.cpu.dtb.hits                                 0                       # DTB hits
system.cpu.dtb.inst_accesses                        0                       # ITB inst accesses
system.cpu.dtb.inst_hits                            0                       # ITB inst hits
system.cpu.dtb.inst_misses                          0                       # ITB inst misses
system.cpu.dtb.misses                               0                       # DTB misses
system.cpu.dtb.perms_faults                         0                       # Number of TLB faults due to permissions restrictions
system.cpu.dtb.prefetch_faults                      0                       # Number of TLB faults due to prefetch
system.cpu.dtb.read_accesses                        0                       # DTB read accesses
system.cpu.dtb.read_hits                            0                       # DTB read hits
system.cpu.dtb.read_misses                          0                       # DTB read misses
system.cpu.dtb.stage2_mmu.stage2_tlb.accesses            0                       # DTB accesses
system.cpu.dtb.stage2_mmu.stage2_tlb.align_faults            0                       # Number of TLB faults due to alignment restrictions
system.cpu.dtb.stage2_mmu.stage2_tlb.domain_faults            0                       # Number of TLB faults due to domain restrictions
system.cpu.dtb.stage2_mmu.stage2_tlb.flush_entries            0                       # Number of entries that have been flushed from TLB
system.cpu.dtb.stage2_mmu.stage2_tlb.flush_tlb            0                       # Number of times complete TLB was flushed
system.cpu.dtb.stage2_mmu.stage2_tlb.flush_tlb_asid            0                       # Number of times TLB was flushed by ASID
system.cpu.dtb.stage2_mmu.stage2_tlb.flush_tlb_mva            0                       # Number of times TLB was flushed by MVA
system.cpu.dtb.stage2_mmu.stage2_tlb.flush_tlb_mva_asid            0                       # Number of times TLB was flushed by MVA & ASID
system.cpu.dtb.stage2_mmu.stage2_tlb.hits            0                       # DTB hits
system.cpu.dtb.stage2_mmu.stage2_tlb.inst_accesses            0                       # ITB inst accesses
system.cpu.dtb.stage2_mmu.stage2_tlb.inst_hits            0                       # ITB inst hits
system.cpu.dtb.stage2_mmu.stage2_tlb.inst_misses            0                       # ITB inst misses
system.cpu.dtb.stage2_mmu.stage2_tlb.misses            0                       # DTB misses
system.cpu.dtb.stage2_mmu.stage2_tlb.perms_faults            0                       # Number of TLB faults due to permissions restrictions
system.cpu.dtb.stage2_mmu.stage2_tlb.prefetch_faults            0                       # Number of TLB faults due to prefetch
system.cpu.dtb.stage2_mmu.stage2_tlb.read_accesses            0                       # DTB read accesses
system.cpu.dtb.stage2_mmu.stage2_tlb.read_hits            0                       # DTB read hits
system.cpu.dtb.stage2_mmu.stage2_tlb.read_misses            0                       # DTB read misses
system.cpu.dtb.stage2_mmu.stage2_tlb.walker.walkRequestOrigin_Requested::Data            0                       # Table walker requests started/completed, data/inst
system.cpu.dtb.stage2_mmu.stage2_tlb.walker.walkRequestOrigin_Requested::Inst            0                       # Table walker requests started/completed, data/inst
system.cpu.dtb.stage2_mmu.stage2_tlb.walker.walkRequestOrigin_Requested::total            0                       # Table walker requests started/completed, data/inst
system.cpu.dtb.stage2_mmu.stage2_tlb.walker.walkRequestOrigin_Completed::Data            0                       # Table walker requests started/completed, data/inst
system.cpu.dtb.stage2_mmu.stage2_tlb.walker.walkRequestOrigin_Completed::Inst            0                       # Table walker requests started/completed, data/inst
system.cpu.dtb.stage2_mmu.stage2_tlb.walker.walkRequestOrigin_Completed::total            0                       # Table walker requests started/completed, data/inst
system.cpu.dtb.stage2_mmu.stage2_tlb.walker.walkRequestOrigin::total            0                       # Table walker requests started/completed, data/inst
system.cpu.dtb.stage2_mmu.stage2_tlb.walker.walks            0                       # Table walker walks requested
system.cpu.dtb.stage2_mmu.stage2_tlb.write_accesses            0                       # DTB write accesses
system.cpu.dtb.stage2_mmu.stage2_tlb.write_hits            0                       # DTB write hits
system.cpu.dtb.stage2_mmu.stage2_tlb.write_misses            0                       # DTB write misses
system.cpu.dtb.walker.walkRequestOrigin_Requested::Data            0                       # Table walker requests started/completed, data/inst
system.cpu.dtb.walker.walkRequestOrigin_Requested::Inst            0                       # Table walker requests started/completed, data/inst
system.cpu.dtb.walker.walkRequestOrigin_Requested::total            0                       # Table walker requests started/completed, data/inst
system.cpu.dtb.walker.walkRequestOrigin_Completed::Data            0                       # Table walker requests started/completed, data/inst
system.cpu.dtb.walker.walkRequestOrigin_Completed::Inst            0                       # Table walker requests started/completed, data/inst
system.cpu.dtb.walker.walkRequestOrigin_Completed::total            0                       # Table walker requests started/completed, data/inst
system.cpu.dtb.walker.walkRequestOrigin::total            0                       # Table walker requests started/completed, data/inst
system.cpu.dtb.walker.walks                         0                       # Table walker walks requested
system.cpu.dtb.write_accesses                       0                       # DTB write accesses
system.cpu.dtb.write_hits                           0                       # DTB write hits
system.cpu.dtb.write_misses                         0                       # DTB write misses
system.cpu.fetch.Branches                    20808820                       # Number of branches that fetch encountered
system.cpu.fetch.CacheLines                   3240671                       # Number of cache lines fetched
system.cpu.fetch.Cycles                      19453650                       # Number of cycles fetch has run and was not squashing or blocked
system.cpu.fetch.IcacheSquashes                  3806                       # Number of outstanding Icache misses that were squashed
system.cpu.fetch.IcacheWaitRetryStallCycles           27                       # Number of stall cycles due to full MSHR
system.cpu.fetch.Insts                      105573980                       # Number of instructions fetch has processed
system.cpu.fetch.MiscStallCycles                    2                       # Number of cycles fetch has spent waiting on interrupts, or bad addresses, or out of MSHRs
system.cpu.fetch.SquashCycles                  120154                       # Number of cycles fetch has spent squashing
system.cpu.fetch.branchRate                  0.910569                       # Number of branch fetches per cycle
system.cpu.fetch.icacheStallCycles            3290113                       # Number of cycles fetch is stalled on an Icache miss
system.cpu.fetch.predictedBranches           13285724                       # Number of branches that fetch has predicted taken
system.cpu.fetch.rate                        4.619791                       # Number of inst fetches per cycle
system.cpu.fetch.rateDist::samples           22803869                       # Number of instructions fetched each cycle (Total)
system.cpu.fetch.rateDist::mean              4.697263                       # Number of instructions fetched each cycle (Total)
system.cpu.fetch.rateDist::stdev             3.357935                       # Number of instructions fetched each cycle (Total)
system.cpu.fetch.rateDist::underflows               0      0.00%      0.00% # Number of instructions fetched each cycle (Total)
system.cpu.fetch.rateDist::0                  4098634     17.97%     17.97% # Number of instructions fetched each cycle (Total)
system.cpu.fetch.rateDist::1                  2783653     12.21%     30.18% # Number of instructions fetched each cycle (Total)
system.cpu.fetch.rateDist::2                  1824788      8.00%     38.18% # Number of instructions fetched each cycle (Total)
system.cpu.fetch.rateDist::3                   785655      3.45%     41.63% # Number of instructions fetched each cycle (Total)
system.cpu.fetch.rateDist::4                   477185      2.09%     43.72% # Number of instructions fetched each cycle (Total)
system.cpu.fetch.rateDist::5                  1015037      4.45%     48.17% # Number of instructions fetched each cycle (Total)
system.cpu.fetch.rateDist::6                   925603      4.06%     52.23% # Number of instructions fetched each cycle (Total)
system.cpu.fetch.rateDist::7                  1358486      5.96%     58.19% # Number of instructions fetched each cycle (Total)
system.cpu.fetch.rateDist::8                  9534828     41.81%    100.00% # Number of instructions fetched each cycle (Total)
system.cpu.fetch.rateDist::overflows                0      0.00%    100.00% # Number of instructions fetched each cycle (Total)
system.cpu.fetch.rateDist::min_value                0                       # Number of instructions fetched each cycle (Total)
system.cpu.fetch.rateDist::max_value                8                       # Number of instructions fetched each cycle (Total)
system.cpu.fetch.rateDist::total             22803869                       # Number of instructions fetched each cycle (Total)
system.cpu.idleCycles                           48677                       # Total number of cycles that the CPU has spent unscheduled due to idling
system.cpu.iew.branchMispredicts                90746                       # Number of branch mispredicts detected at execute
system.cpu.iew.exec_branches                 19839821                       # Number of branches executed
system.cpu.iew.exec_nop                           261                       # number of nop insts executed
system.cpu.iew.exec_rate                     4.540107                       # Inst execution rate
system.cpu.iew.exec_refs                     32614415                       # number of memory reference insts executed
system.cpu.iew.exec_stores                    5880489                       # Number of stores executed
system.cpu.iew.exec_swp                             0                       # number of swp insts executed
system.cpu.iew.iewBlockCycles                  382682                       # Number of cycles IEW is blocking
system.cpu.iew.iewDispLoadInsts              26771139                       # Number of dispatched load instructions
system.cpu.iew.iewDispNonSpecInsts                 71                       # Number of dispatched non-speculative instructions
system.cpu.iew.iewDispSquashedInsts              3010                       # Number of squashed instructions skipped by dispatch
system.cpu.iew.iewDispStoreInsts              5909164                       # Number of dispatched store instructions
system.cpu.iew.iewDispatchedInsts           104866499                       # Number of instructions dispatched to IQ
system.cpu.iew.iewExecLoadInsts              26733926                       # Number of load instructions executed
system.cpu.iew.iewExecSquashedInsts             97380                       # Number of squashed instructions skipped in execute
system.cpu.iew.iewExecutedInsts             103752996                       # Number of executed instructions
system.cpu.iew.iewIQFullEvents                      8                       # Number of times the IQ has become full, causing a stall
system.cpu.iew.iewIdleCycles                        0                       # Number of cycles IEW is idle
system.cpu.iew.iewLSQFullEvents                  1246                       # Number of times the LSQ has become full, causing a stall
system.cpu.iew.iewSquashCycles                  59689                       # Number of cycles IEW is squashing
system.cpu.iew.iewUnblockCycles                  1277                       # Number of cycles IEW is unblocking
system.cpu.iew.lsq.thread0.blockedLoads             0                       # Number of blocked loads due to partial load-store forwarding
system.cpu.iew.lsq.thread0.cacheBlocked           525                       # Number of times an access to memory failed due to the cache being blocked
system.cpu.iew.lsq.thread0.forwLoads             5134                       # Number of loads that had data forwarded from stores
system.cpu.iew.lsq.thread0.ignoredResponses            0                       # Number of memory responses ignored because the instruction is squashed
system.cpu.iew.lsq.thread0.invAddrLoads             0                       # Number of loads ignored due to an invalid address
system.cpu.iew.lsq.thread0.invAddrSwpfs             0                       # Number of software prefetches ignored due to an invalid address
system.cpu.iew.lsq.thread0.memOrderViolation          137                       # Number of memory ordering violations
system.cpu.iew.lsq.thread0.rescheduledLoads       195497                       # Number of loads that were rescheduled
system.cpu.iew.lsq.thread0.squashedLoads       818359                       # Number of loads squashed
system.cpu.iew.lsq.thread0.squashedStores        40497                       # Number of stores squashed
system.cpu.iew.memOrderViolationEvents            137                       # Number of memory order violations
system.cpu.iew.predictedNotTakenIncorrect        15742                       # Number of branches that were predicted not taken incorrectly
system.cpu.iew.predictedTakenIncorrect          75004                       # Number of branches that were predicted taken incorrectly
system.cpu.iew.wb_consumers                 132672690                       # num instructions consuming a value
system.cpu.iew.wb_count                     103359653                       # cumulative count of insts written-back
system.cpu.iew.wb_fanout                     0.556015                       # average fanout of values written-back
system.cpu.iew.wb_producers                  73767966                       # num instructions producing a value
system.cpu.iew.wb_rate                       4.522894                       # insts written-back per cycle
system.cpu.iew.wb_sent                      103438829                       # cumulative count of insts sent to commit
system.cpu.int_regfile_reads                127773591                       # number of integer regfile reads
system.cpu.int_regfile_writes                77953034                       # number of integer regfile writes
system.cpu.ipc                               4.375880                       # IPC: Instructions Per Cycle
system.cpu.ipc_total                         4.375880                       # IPC: Total IPC of All Threads
system.cpu.iq.FU_type_0::No_OpClass                13      0.00%      0.00% # Type of FU issued
system.cpu.iq.FU_type_0::IntAlu              71090011     68.45%     68.45% # Type of FU issued
system.cpu.iq.FU_type_0::IntMult                 6381      0.01%     68.46% # Type of FU issued
system.cpu.iq.FU_type_0::IntDiv                   149      0.00%     68.46% # Type of FU issued
system.cpu.iq.FU_type_0::FloatAdd                4094      0.00%     68.46% # Type of FU issued
system.cpu.iq.FU_type_0::FloatCmp               16376      0.02%     68.48% # Type of FU issued
system.cpu.iq.FU_type_0::FloatCvt                6163      0.01%     68.49% # Type of FU issued
system.cpu.iq.FU_type_0::FloatMult              22519      0.02%     68.51% # Type of FU issued
system.cpu.iq.FU_type_0::FloatMultAcc           22519      0.02%     68.53% # Type of FU issued
system.cpu.iq.FU_type_0::FloatDiv                  22      0.00%     68.53% # Type of FU issued
system.cpu.iq.FU_type_0::FloatMisc               2072      0.00%     68.53% # Type of FU issued
system.cpu.iq.FU_type_0::FloatSqrt                  0      0.00%     68.53% # Type of FU issued
system.cpu.iq.FU_type_0::SimdAdd                   43      0.00%     68.53% # Type of FU issued
system.cpu.iq.FU_type_0::SimdAddAcc                 0      0.00%     68.53% # Type of FU issued
system.cpu.iq.FU_type_0::SimdAlu                   51      0.00%     68.53% # Type of FU issued
system.cpu.iq.FU_type_0::SimdCmp                   52      0.00%     68.53% # Type of FU issued
system.cpu.iq.FU_type_0::SimdCvt                    0      0.00%     68.53% # Type of FU issued
system.cpu.iq.FU_type_0::SimdMisc                2086      0.00%     68.53% # Type of FU issued
system.cpu.iq.FU_type_0::SimdMult                   0      0.00%     68.53% # Type of FU issued
system.cpu.iq.FU_type_0::SimdMultAcc                0      0.00%     68.53% # Type of FU issued
system.cpu.iq.FU_type_0::SimdShift                  0      0.00%     68.53% # Type of FU issued
system.cpu.iq.FU_type_0::SimdShiftAcc               0      0.00%     68.53% # Type of FU issued
system.cpu.iq.FU_type_0::SimdDiv                    0      0.00%     68.53% # Type of FU issued
system.cpu.iq.FU_type_0::SimdSqrt                   0      0.00%     68.53% # Type of FU issued
system.cpu.iq.FU_type_0::SimdFloatAdd               0      0.00%     68.53% # Type of FU issued
system.cpu.iq.FU_type_0::SimdFloatAlu               0      0.00%     68.53% # Type of FU issued
system.cpu.iq.FU_type_0::SimdFloatCmp               0      0.00%     68.53% # Type of FU issued
system.cpu.iq.FU_type_0::SimdFloatCvt               0      0.00%     68.53% # Type of FU issued
system.cpu.iq.FU_type_0::SimdFloatDiv               0      0.00%     68.53% # Type of FU issued
system.cpu.iq.FU_type_0::SimdFloatMisc              0      0.00%     68.53% # Type of FU issued
system.cpu.iq.FU_type_0::SimdFloatMult              0      0.00%     68.53% # Type of FU issued
system.cpu.iq.FU_type_0::SimdFloatMultAcc            0      0.00%     68.53% # Type of FU issued
system.cpu.iq.FU_type_0::SimdFloatSqrt              0      0.00%     68.53% # Type of FU issued
system.cpu.iq.FU_type_0::SimdReduceAdd              0      0.00%     68.53% # Type of FU issued
system.cpu.iq.FU_type_0::SimdReduceAlu              0      0.00%     68.53% # Type of FU issued
system.cpu.iq.FU_type_0::SimdReduceCmp              0      0.00%     68.53% # Type of FU issued
system.cpu.iq.FU_type_0::SimdFloatReduceAdd            0      0.00%     68.53% # Type of FU issued
system.cpu.iq.FU_type_0::SimdFloatReduceCmp            0      0.00%     68.53% # Type of FU issued
system.cpu.iq.FU_type_0::SimdAes                    0      0.00%     68.53% # Type of FU issued
system.cpu.iq.FU_type_0::SimdAesMix                 0      0.00%     68.53% # Type of FU issued
system.cpu.iq.FU_type_0::SimdSha1Hash               0      0.00%     68.53% # Type of FU issued
system.cpu.iq.FU_type_0::SimdSha1Hash2              0      0.00%     68.53% # Type of FU issued
system.cpu.iq.FU_type_0::SimdSha256Hash             0      0.00%     68.53% # Type of FU issued
system.cpu.iq.FU_type_0::SimdSha256Hash2            0      0.00%     68.53% # Type of FU issued
system.cpu.iq.FU_type_0::SimdShaSigma2              0      0.00%     68.53% # Type of FU issued
system.cpu.iq.FU_type_0::SimdShaSigma3              0      0.00%     68.53% # Type of FU issued
system.cpu.iq.FU_type_0::SimdPredAlu                0      0.00%     68.53% # Type of FU issued
system.cpu.iq.FU_type_0::MemRead             26794667     25.80%     94.33% # Type of FU issued
system.cpu.iq.FU_type_0::MemWrite             5883161      5.67%    100.00% # Type of FU issued
system.cpu.iq.FU_type_0::FloatMemRead               0      0.00%    100.00% # Type of FU issued
system.cpu.iq.FU_type_0::FloatMemWrite              0      0.00%    100.00% # Type of FU issued
system.cpu.iq.FU_type_0::IprAccess                  0      0.00%    100.00% # Type of FU issued
system.cpu.iq.FU_type_0::InstPrefetch               0      0.00%    100.00% # Type of FU issued
system.cpu.iq.FU_type_0::total              103850379                       # Type of FU issued
system.cpu.iq.fp_alu_accesses                       0                       # Number of floating point alu accesses
system.cpu.iq.fp_inst_queue_reads                   0                       # Number of floating instruction queue reads
system.cpu.iq.fp_inst_queue_wakeup_accesses            0                       # Number of floating instruction queue wakeup accesses
system.cpu.iq.fp_inst_queue_writes                  0                       # Number of floating instruction queue writes
system.cpu.iq.fu_busy_cnt                     1088857                       # FU busy when requested
system.cpu.iq.fu_busy_rate                   0.010485                       # FU busy rate (busy events/executed inst)
system.cpu.iq.fu_full::No_OpClass                   0      0.00%      0.00% # attempts to use FU when none available
system.cpu.iq.fu_full::IntAlu                  709649     65.17%     65.17% # attempts to use FU when none available
system.cpu.iq.fu_full::IntMult                      0      0.00%     65.17% # attempts to use FU when none available
system.cpu.iq.fu_full::IntDiv                     622      0.06%     65.23% # attempts to use FU when none available
system.cpu.iq.fu_full::FloatAdd                     0      0.00%     65.23% # attempts to use FU when none available
system.cpu.iq.fu_full::FloatCmp                     0      0.00%     65.23% # attempts to use FU when none available
system.cpu.iq.fu_full::FloatCvt                     0      0.00%     65.23% # attempts to use FU when none available
system.cpu.iq.fu_full::FloatMult                  190      0.02%     65.25% # attempts to use FU when none available
system.cpu.iq.fu_full::FloatMultAcc                 5      0.00%     65.25% # attempts to use FU when none available
system.cpu.iq.fu_full::FloatDiv                     0      0.00%     65.25% # attempts to use FU when none available
system.cpu.iq.fu_full::FloatMisc                    2      0.00%     65.25% # attempts to use FU when none available
system.cpu.iq.fu_full::FloatSqrt                    0      0.00%     65.25% # attempts to use FU when none available
system.cpu.iq.fu_full::SimdAdd                      0      0.00%     65.25% # attempts to use FU when none available
system.cpu.iq.fu_full::SimdAddAcc                   0      0.00%     65.25% # attempts to use FU when none available
system.cpu.iq.fu_full::SimdAlu                      2      0.00%     65.25% # attempts to use FU when none available
system.cpu.iq.fu_full::SimdCmp                      4      0.00%     65.25% # attempts to use FU when none available
system.cpu.iq.fu_full::SimdCvt                      0      0.00%     65.25% # attempts to use FU when none available
system.cpu.iq.fu_full::SimdMisc                     0      0.00%     65.25% # attempts to use FU when none available
system.cpu.iq.fu_full::SimdMult                     0      0.00%     65.25% # attempts to use FU when none available
system.cpu.iq.fu_full::SimdMultAcc                  0      0.00%     65.25% # attempts to use FU when none available
system.cpu.iq.fu_full::SimdShift                    0      0.00%     65.25% # attempts to use FU when none available
system.cpu.iq.fu_full::SimdShiftAcc                 0      0.00%     65.25% # attempts to use FU when none available
system.cpu.iq.fu_full::SimdDiv                      0      0.00%     65.25% # attempts to use FU when none available
system.cpu.iq.fu_full::SimdSqrt                     0      0.00%     65.25% # attempts to use FU when none available
system.cpu.iq.fu_full::SimdFloatAdd                 0      0.00%     65.25% # attempts to use FU when none available
system.cpu.iq.fu_full::SimdFloatAlu                 0      0.00%     65.25% # attempts to use FU when none available
system.cpu.iq.fu_full::SimdFloatCmp                 0      0.00%     65.25% # attempts to use FU when none available
system.cpu.iq.fu_full::SimdFloatCvt                 0      0.00%     65.25% # attempts to use FU when none available
system.cpu.iq.fu_full::SimdFloatDiv                 0      0.00%     65.25% # attempts to use FU when none available
system.cpu.iq.fu_full::SimdFloatMisc                0      0.00%     65.25% # attempts to use FU when none available
system.cpu.iq.fu_full::SimdFloatMult                0      0.00%     65.25% # attempts to use FU when none available
system.cpu.iq.fu_full::SimdFloatMultAcc             0      0.00%     65.25% # attempts to use FU when none available
system.cpu.iq.fu_full::SimdFloatSqrt                0      0.00%     65.25% # attempts to use FU when none available
system.cpu.iq.fu_full::SimdReduceAdd                0      0.00%     65.25% # attempts to use FU when none available
system.cpu.iq.fu_full::SimdReduceAlu                0      0.00%     65.25% # attempts to use FU when none available
system.cpu.iq.fu_full::SimdReduceCmp                0      0.00%     65.25% # attempts to use FU when none available
system.cpu.iq.fu_full::SimdFloatReduceAdd            0      0.00%     65.25% # attempts to use FU when none available
system.cpu.iq.fu_full::SimdFloatReduceCmp            0      0.00%     65.25% # attempts to use FU when none available
system.cpu.iq.fu_full::SimdAes                      0      0.00%     65.25% # attempts to use FU when none available
system.cpu.iq.fu_full::SimdAesMix                   0      0.00%     65.25% # attempts to use FU when none available
system.cpu.iq.fu_full::SimdSha1Hash                 0      0.00%     65.25% # attempts to use FU when none available
system.cpu.iq.fu_full::SimdSha1Hash2                0      0.00%     65.25% # attempts to use FU when none available
system.cpu.iq.fu_full::SimdSha256Hash               0      0.00%     65.25% # attempts to use FU when none available
system.cpu.iq.fu_full::SimdSha256Hash2              0      0.00%     65.25% # attempts to use FU when none available
system.cpu.iq.fu_full::SimdShaSigma2                0      0.00%     65.25% # attempts to use FU when none available
system.cpu.iq.fu_full::SimdShaSigma3                0      0.00%     65.25% # attempts to use FU when none available
system.cpu.iq.fu_full::SimdPredAlu                  0      0.00%     65.25% # attempts to use FU when none available
system.cpu.iq.fu_full::MemRead                 191480     17.59%     82.83% # attempts to use FU when none available
system.cpu.iq.fu_full::MemWrite                186903     17.17%    100.00% # attempts to use FU when none available
system.cpu.iq.fu_full::FloatMemRead                 0      0.00%    100.00% # attempts to use FU when none available
system.cpu.iq.fu_full::FloatMemWrite                0      0.00%    100.00% # attempts to use FU when none available
system.cpu.iq.fu_full::IprAccess                    0      0.00%    100.00% # attempts to use FU when none available
system.cpu.iq.fu_full::InstPrefetch                 0      0.00%    100.00% # attempts to use FU when none available
system.cpu.iq.int_alu_accesses              104359225                       # Number of integer alu accesses
system.cpu.iq.int_inst_queue_reads          230528389                       # Number of integer instruction queue reads
system.cpu.iq.int_inst_queue_wakeup_accesses    102873392                       # Number of integer instruction queue wakeup accesses
system.cpu.iq.int_inst_queue_writes         107720703                       # Number of integer instruction queue writes
system.cpu.iq.iqInstsAdded                  104866167                       # Number of instructions added to the IQ (excludes non-spec)
system.cpu.iq.iqInstsIssued                 103850379                       # Number of instructions issued
system.cpu.iq.iqNonSpecInstsAdded                  71                       # Number of non-speculative instructions added to the IQ
system.cpu.iq.iqSquashedInstsExamined         3342345                       # Number of squashed instructions iterated over during squash; mainly for profiling
system.cpu.iq.iqSquashedInstsIssued              1617                       # Number of squashed instructions issued
system.cpu.iq.iqSquashedNonSpecRemoved             15                       # Number of squashed non-spec instructions that were removed
system.cpu.iq.iqSquashedOperandsExamined      2880499                       # Number of squashed operands that are examined and possibly removed from graph
system.cpu.iq.issued_per_cycle::samples      22803869                       # Number of insts issued each cycle
system.cpu.iq.issued_per_cycle::mean         4.554068                       # Number of insts issued each cycle
system.cpu.iq.issued_per_cycle::stdev        2.124473                       # Number of insts issued each cycle
system.cpu.iq.issued_per_cycle::underflows            0      0.00%      0.00% # Number of insts issued each cycle
system.cpu.iq.issued_per_cycle::0             1051203      4.61%      4.61% # Number of insts issued each cycle
system.cpu.iq.issued_per_cycle::1              561301      2.46%      7.07% # Number of insts issued each cycle
system.cpu.iq.issued_per_cycle::2             2491159     10.92%     18.00% # Number of insts issued each cycle
system.cpu.iq.issued_per_cycle::3             4639585     20.35%     38.34% # Number of insts issued each cycle
system.cpu.iq.issued_per_cycle::4             1586150      6.96%     45.30% # Number of insts issued each cycle
system.cpu.iq.issued_per_cycle::5             2608798     11.44%     56.74% # Number of insts issued each cycle
system.cpu.iq.issued_per_cycle::6             5235164     22.96%     79.69% # Number of insts issued each cycle
system.cpu.iq.issued_per_cycle::7             3455641     15.15%     94.85% # Number of insts issued each cycle
system.cpu.iq.issued_per_cycle::8             1174868      5.15%    100.00% # Number of insts issued each cycle
system.cpu.iq.issued_per_cycle::overflows            0      0.00%    100.00% # Number of insts issued each cycle
system.cpu.iq.issued_per_cycle::min_value            0                       # Number of insts issued each cycle
system.cpu.iq.issued_per_cycle::max_value            8                       # Number of insts issued each cycle
system.cpu.iq.issued_per_cycle::total        22803869                       # Number of insts issued each cycle
system.cpu.iq.rate                           4.544368                       # Inst issue rate
system.cpu.iq.vec_alu_accesses                 579998                       # Number of vector alu accesses
system.cpu.iq.vec_inst_queue_reads            1066709                       # Number of vector instruction queue reads
system.cpu.iq.vec_inst_queue_wakeup_accesses       486261                       # Number of vector instruction queue wakeup accesses
system.cpu.iq.vec_inst_queue_writes            488015                       # Number of vector instruction queue writes
system.cpu.itb.accesses                             0                       # DTB accesses
system.cpu.itb.align_faults                         0                       # Number of TLB faults due to alignment restrictions
system.cpu.itb.domain_faults                        0                       # Number of TLB faults due to domain restrictions
system.cpu.itb.flush_entries                        0                       # Number of entries that have been flushed from TLB
system.cpu.itb.flush_tlb                            0                       # Number of times complete TLB was flushed
system.cpu.itb.flush_tlb_asid                       0                       # Number of times TLB was flushed by ASID
system.cpu.itb.flush_tlb_mva                        0                       # Number of times TLB was flushed by MVA
system.cpu.itb.flush_tlb_mva_asid                   0                       # Number of times TLB was flushed by MVA & ASID
system.cpu.itb.hits                                 0                       # DTB hits
system.cpu.itb.inst_accesses                        0                       # ITB inst accesses
system.cpu.itb.inst_hits                            0                       # ITB inst hits
system.cpu.itb.inst_misses                          0                       # ITB inst misses
system.cpu.itb.misses                               0                       # DTB misses
system.cpu.itb.perms_faults                         0                       # Number of TLB faults due to permissions restrictions
system.cpu.itb.prefetch_faults                      0                       # Number of TLB faults due to prefetch
system.cpu.itb.read_accesses                        0                       # DTB read accesses
system.cpu.itb.read_hits                            0                       # DTB read hits
system.cpu.itb.read_misses                          0                       # DTB read misses
system.cpu.itb.stage2_mmu.stage2_tlb.accesses            0                       # DTB accesses
system.cpu.itb.stage2_mmu.stage2_tlb.align_faults            0                       # Number of TLB faults due to alignment restrictions
system.cpu.itb.stage2_mmu.stage2_tlb.domain_faults            0                       # Number of TLB faults due to domain restrictions
system.cpu.itb.stage2_mmu.stage2_tlb.flush_entries            0                       # Number of entries that have been flushed from TLB
system.cpu.itb.stage2_mmu.stage2_tlb.flush_tlb            0                       # Number of times complete TLB was flushed
system.cpu.itb.stage2_mmu.stage2_tlb.flush_tlb_asid            0                       # Number of times TLB was flushed by ASID
system.cpu.itb.stage2_mmu.stage2_tlb.flush_tlb_mva            0                       # Number of times TLB was flushed by MVA
system.cpu.itb.stage2_mmu.stage2_tlb.flush_tlb_mva_asid            0                       # Number of times TLB was flushed by MVA & ASID
system.cpu.itb.stage2_mmu.stage2_tlb.hits            0                       # DTB hits
system.cpu.itb.stage2_mmu.stage2_tlb.inst_accesses            0                       # ITB inst accesses
system.cpu.itb.stage2_mmu.stage2_tlb.inst_hits            0                       # ITB inst hits
system.cpu.itb.stage2_mmu.stage2_tlb.inst_misses            0                       # ITB inst misses
system.cpu.itb.stage2_mmu.stage2_tlb.misses            0                       # DTB misses
system.cpu.itb.stage2_mmu.stage2_tlb.perms_faults            0                       # Number of TLB faults due to permissions restrictions
system.cpu.itb.stage2_mmu.stage2_tlb.prefetch_faults            0                       # Number of TLB faults due to prefetch
system.cpu.itb.stage2_mmu.stage2_tlb.read_accesses            0                       # DTB read accesses
system.cpu.itb.stage2_mmu.stage2_tlb.read_hits            0                       # DTB read hits
system.cpu.itb.stage2_mmu.stage2_tlb.read_misses            0                       # DTB read misses
system.cpu.itb.stage2_mmu.stage2_tlb.walker.walkRequestOrigin_Requested::Data            0                       # Table walker requests started/completed, data/inst
system.cpu.itb.stage2_mmu.stage2_tlb.walker.walkRequestOrigin_Requested::Inst            0                       # Table walker requests started/completed, data/inst
system.cpu.itb.stage2_mmu.stage2_tlb.walker.walkRequestOrigin_Requested::total            0                       # Table walker requests started/completed, data/inst
system.cpu.itb.stage2_mmu.stage2_tlb.walker.walkRequestOrigin_Completed::Data            0                       # Table walker requests started/completed, data/inst
system.cpu.itb.stage2_mmu.stage2_tlb.walker.walkRequestOrigin_Completed::Inst            0                       # Table walker requests started/completed, data/inst
system.cpu.itb.stage2_mmu.stage2_tlb.walker.walkRequestOrigin_Completed::total            0                       # Table walker requests started/completed, data/inst
system.cpu.itb.stage2_mmu.stage2_tlb.walker.walkRequestOrigin::total            0                       # Table walker requests started/completed, data/inst
system.cpu.itb.stage2_mmu.stage2_tlb.walker.walks            0                       # Table walker walks requested
system.cpu.itb.stage2_mmu.stage2_tlb.write_accesses            0                       # DTB write accesses
system.cpu.itb.stage2_mmu.stage2_tlb.write_hits            0                       # DTB write hits
system.cpu.itb.stage2_mmu.stage2_tlb.write_misses            0                       # DTB write misses
system.cpu.itb.walker.walkRequestOrigin_Requested::Data            0                       # Table walker requests started/completed, data/inst
system.cpu.itb.walker.walkRequestOrigin_Requested::Inst            0                       # Table walker requests started/completed, data/inst
system.cpu.itb.walker.walkRequestOrigin_Requested::total            0                       # Table walker requests started/completed, data/inst
system.cpu.itb.walker.walkRequestOrigin_Completed::Data            0                       # Table walker requests started/completed, data/inst
system.cpu.itb.walker.walkRequestOrigin_Completed::Inst            0                       # Table walker requests started/completed, data/inst
system.cpu.itb.walker.walkRequestOrigin_Completed::total            0                       # Table walker requests started/completed, data/inst
system.cpu.itb.walker.walkRequestOrigin::total            0                       # Table walker requests started/completed, data/inst
system.cpu.itb.walker.walks                         0                       # Table walker walks requested
system.cpu.itb.write_accesses                       0                       # DTB write accesses
system.cpu.itb.write_hits                           0                       # DTB write hits
system.cpu.itb.write_misses                         0                       # DTB write misses
system.cpu.memDep0.conflictingLoads             12343                       # Number of conflicting loads.
system.cpu.memDep0.conflictingStores             2114                       # Number of conflicting stores.
system.cpu.memDep0.insertedLoads             26771139                       # Number of loads inserted to the mem dependence unit.
system.cpu.memDep0.insertedStores             5909164                       # Number of stores inserted to the mem dependence unit.
system.cpu.misc_regfile_reads                62122224                       # number of misc regfile reads
system.cpu.misc_regfile_writes                  71882                       # number of misc regfile writes
system.cpu.numCycles                         22852546                       # number of cpu cycles simulated
system.cpu.numWorkItemsCompleted                    0                       # number of work items this cpu completed
system.cpu.numWorkItemsStarted                      0                       # number of work items this cpu started
system.cpu.rename.BlockCycles                  383943                       # Number of cycles rename is blocking
system.cpu.rename.CommittedMaps             133602991                       # Number of HB maps that are committed
system.cpu.rename.IQFullEvents                 238856                       # Number of times rename has blocked due to IQ full
system.cpu.rename.IdleCycles                  3735212                       # Number of cycles rename is idle
system.cpu.rename.LQFullEvents                   1287                       # Number of times rename has blocked due to LQ full
system.cpu.rename.ROBFullEvents                     3                       # Number of times rename has blocked due to ROB full
system.cpu.rename.RenameLookups             191370232                       # Number of register rename lookups that rename has made
system.cpu.rename.RenamedInsts              105596824                       # Number of instructions processed by rename
system.cpu.rename.RenamedOperands           139574674                       # Number of destination operands rename has renamed
system.cpu.rename.RunCycles                  18088653                       # Number of cycles rename is running
system.cpu.rename.SQFullEvents                  33187                       # Number of times rename has blocked due to SQ full
system.cpu.rename.SquashCycles                  59689                       # Number of cycles rename is squashing
system.cpu.rename.UnblockCycles                530320                       # Number of cycles rename is unblocking
system.cpu.rename.UndoneMaps                  5971618                       # Number of HB maps that are undone due to squashing
system.cpu.rename.int_rename_lookups        129887982                       # Number of integer rename lookups
system.cpu.rename.serializeStallCycles           6052                       # count of cycles rename stalled for serializing inst
system.cpu.rename.serializingInsts                304                       # count of serializing insts renamed
system.cpu.rename.skidInsts                   2500097                       # count of insts added to the skid buffer
system.cpu.rename.tempSerializingInsts             72                       # count of temporary serializing insts renamed
system.cpu.rename.vec_rename_lookups           548747                       # Number of vector rename lookups
system.cpu.rob.rob_reads                    118506274                       # The number of ROB reads
system.cpu.rob.rob_writes                   210174225                       # The number of ROB writes
system.cpu.timesIdled                             438                       # Number of times that the entire CPU went into an idle state and unscheduled itself
system.cpu.vec_regfile_reads                   547755                       # number of vector regfile reads
system.cpu.vec_regfile_writes                   96687                       # number of vector regfile writes
system.cpu.workload.numSyscalls                     7                       # Number of system calls
system.membus.snoop_filter.hit_multi_requests            0                       # Number of requests hitting in the snoop filter with multiple (>1) holders of the requested data.
system.membus.snoop_filter.hit_multi_snoops            0                       # Number of snoops hitting in the snoop filter with multiple (>1) holders of the requested data.
system.membus.snoop_filter.hit_single_requests            0                       # Number of requests hitting in the snoop filter with a single holder of the requested data.
system.membus.snoop_filter.hit_single_snoops            0                       # Number of snoops hitting in the snoop filter with a single holder of the requested data.
system.membus.snoop_filter.tot_requests          1951                       # Total number of requests made to the snoop filter.
system.membus.snoop_filter.tot_snoops               0                       # Total number of snoops made to the snoop filter.
system.tol2bus.snoop_filter.hit_multi_requests            0                       # Number of requests hitting in the snoop filter with multiple (>1) holders of the requested data.
system.tol2bus.snoop_filter.hit_multi_snoops            0                       # Number of snoops hitting in the snoop filter with multiple (>1) holders of the requested data.
system.tol2bus.snoop_filter.hit_single_requests            1                       # Number of requests hitting in the snoop filter with a single holder of the requested data.
system.tol2bus.snoop_filter.hit_single_snoops            0                       # Number of snoops hitting in the snoop filter with a single holder of the requested data.
system.tol2bus.snoop_filter.tot_requests         1952                       # Total number of requests made to the snoop filter.
system.tol2bus.snoop_filter.tot_snoops              0                       # Total number of snoops made to the snoop filter.
system.membus.trans_dist::ReadResp                707                       # Transaction distribution
system.membus.trans_dist::ReadExReq               698                       # Transaction distribution
system.membus.trans_dist::ReadExResp              698                       # Transaction distribution
system.membus.trans_dist::ReadSharedReq           707                       # Transaction distribution
system.membus.trans_dist::InvalidateReq           546                       # Transaction distribution
system.membus.pkt_count_system.l2.mem_side::system.mem_ctrls.port         3356                       # Packet count per connected master and slave (bytes)
system.membus.pkt_count::total                   3356                       # Packet count per connected master and slave (bytes)
system.membus.pkt_size_system.l2.mem_side::system.mem_ctrls.port        89920                       # Cumulative packet size per connected master and slave (bytes)
system.membus.pkt_size::total                   89920                       # Cumulative packet size per connected master and slave (bytes)
system.membus.snoops                                0                       # Total snoops (count)
system.membus.snoopTraffic                          0                       # Total snoop traffic (bytes)
system.membus.snoop_fanout::samples              1951                       # Request fanout histogram
system.membus.snoop_fanout::mean                    0                       # Request fanout histogram
system.membus.snoop_fanout::stdev                   0                       # Request fanout histogram
system.membus.snoop_fanout::underflows              0      0.00%      0.00% # Request fanout histogram
system.membus.snoop_fanout::0                    1951    100.00%    100.00% # Request fanout histogram
system.membus.snoop_fanout::1                       0      0.00%    100.00% # Request fanout histogram
system.membus.snoop_fanout::overflows               0      0.00%    100.00% # Request fanout histogram
system.membus.snoop_fanout::min_value               0                       # Request fanout histogram
system.membus.snoop_fanout::max_value               0                       # Request fanout histogram
system.membus.snoop_fanout::total                1951                       # Request fanout histogram
system.membus.reqLayer0.occupancy             2245500                       # Layer occupancy (ticks)
system.membus.reqLayer0.utilization               0.0                       # Layer utilization (%)
system.membus.respLayer1.occupancy            7417500                       # Layer occupancy (ticks)
system.membus.respLayer1.utilization              0.1                       # Layer utilization (%)
system.membus.power_state.pwrStateResidencyTicks::UNDEFINED  11426272000                       # Cumulative time (in ticks) in various power states
system.tol2bus.trans_dist::ReadResp               708                       # Transaction distribution
system.tol2bus.trans_dist::ReadExReq              698                       # Transaction distribution
system.tol2bus.trans_dist::ReadExResp             698                       # Transaction distribution
system.tol2bus.trans_dist::ReadCleanReq           606                       # Transaction distribution
system.tol2bus.trans_dist::ReadSharedReq          102                       # Transaction distribution
system.tol2bus.trans_dist::InvalidateReq          546                       # Transaction distribution
system.tol2bus.trans_dist::InvalidateResp          546                       # Transaction distribution
system.tol2bus.pkt_count_system.cpu.icache.mem_side::system.l2.cpu_side         1212                       # Packet count per connected master and slave (bytes)
system.tol2bus.pkt_count_system.cpu.dcache.mem_side::system.l2.cpu_side         2692                       # Packet count per connected master and slave (bytes)
system.tol2bus.pkt_count::total                  3904                       # Packet count per connected master and slave (bytes)
system.tol2bus.pkt_size_system.cpu.icache.mem_side::system.l2.cpu_side        38784                       # Cumulative packet size per connected master and slave (bytes)
system.tol2bus.pkt_size_system.cpu.dcache.mem_side::system.l2.cpu_side        51200                       # Cumulative packet size per connected master and slave (bytes)
system.tol2bus.pkt_size::total                  89984                       # Cumulative packet size per connected master and slave (bytes)
system.tol2bus.snoops                               0                       # Total snoops (count)
system.tol2bus.snoopTraffic                         0                       # Total snoop traffic (bytes)
system.tol2bus.snoop_fanout::samples             1952                       # Request fanout histogram
system.tol2bus.snoop_fanout::mean            0.000512                       # Request fanout histogram
system.tol2bus.snoop_fanout::stdev           0.022634                       # Request fanout histogram
system.tol2bus.snoop_fanout::underflows             0      0.00%      0.00% # Request fanout histogram
system.tol2bus.snoop_fanout::0                   1951     99.95%     99.95% # Request fanout histogram
system.tol2bus.snoop_fanout::1                      1      0.05%    100.00% # Request fanout histogram
system.tol2bus.snoop_fanout::2                      0      0.00%    100.00% # Request fanout histogram
system.tol2bus.snoop_fanout::overflows              0      0.00%    100.00% # Request fanout histogram
system.tol2bus.snoop_fanout::min_value              0                       # Request fanout histogram
system.tol2bus.snoop_fanout::max_value              1                       # Request fanout histogram
system.tol2bus.snoop_fanout::total               1952                       # Request fanout histogram
system.tol2bus.reqLayer0.occupancy             976000                       # Layer occupancy (ticks)
system.tol2bus.reqLayer0.utilization              0.0                       # Layer utilization (%)
system.tol2bus.respLayer1.occupancy           1473000                       # Layer occupancy (ticks)
system.tol2bus.respLayer1.utilization             0.0                       # Layer utilization (%)
system.tol2bus.respLayer0.occupancy            909000                       # Layer occupancy (ticks)
system.tol2bus.respLayer0.utilization             0.0                       # Layer utilization (%)
system.tol2bus.power_state.pwrStateResidencyTicks::UNDEFINED  11426272000                       # Cumulative time (in ticks) in various power states
system.voltage_domain.voltage                       1                       # Voltage in Volts
system.clk_domain.clock                          1000                       # Clock period in ticks
system.l2.demand_hits::.cpu.inst                    1                       # number of demand (read+write) hits
system.l2.demand_hits::total                        1                       # number of demand (read+write) hits
system.l2.overall_hits::.cpu.inst                   1                       # number of overall hits
system.l2.overall_hits::total                       1                       # number of overall hits
system.l2.demand_misses::.cpu.inst                605                       # number of demand (read+write) misses
system.l2.demand_misses::.cpu.data                800                       # number of demand (read+write) misses
system.l2.demand_misses::total                   1405                       # number of demand (read+write) misses
system.l2.overall_misses::.cpu.inst               605                       # number of overall misses
system.l2.overall_misses::.cpu.data               800                       # number of overall misses
system.l2.overall_misses::total                  1405                       # number of overall misses
system.l2.demand_miss_latency::.cpu.inst     48093000                       # number of demand (read+write) miss cycles
system.l2.demand_miss_latency::.cpu.data     61674500                       # number of demand (read+write) miss cycles
system.l2.demand_miss_latency::total        109767500                       # number of demand (read+write) miss cycles
system.l2.overall_miss_latency::.cpu.inst     48093000                       # number of overall miss cycles
system.l2.overall_miss_latency::.cpu.data     61674500                       # number of overall miss cycles
system.l2.overall_miss_latency::total       109767500                       # number of overall miss cycles
system.l2.demand_accesses::.cpu.inst              606                       # number of demand (read+write) accesses
system.l2.demand_accesses::.cpu.data              800                       # number of demand (read+write) accesses
system.l2.demand_accesses::total                 1406                       # number of demand (read+write) accesses
system.l2.overall_accesses::.cpu.inst             606                       # number of overall (read+write) accesses
system.l2.overall_accesses::.cpu.data             800                       # number of overall (read+write) accesses
system.l2.overall_accesses::total                1406                       # number of overall (read+write) accesses
system.l2.demand_miss_rate::.cpu.inst        0.998350                       # miss rate for demand accesses
system.l2.demand_miss_rate::.cpu.data               1                       # miss rate for demand accesses
system.l2.demand_miss_rate::total            0.999289                       # miss rate for demand accesses
system.l2.overall_miss_rate::.cpu.inst       0.998350                       # miss rate for overall accesses
system.l2.overall_miss_rate::.cpu.data              1                       # miss rate for overall accesses
system.l2.overall_miss_rate::total           0.999289                       # miss rate for overall accesses
system.l2.demand_avg_miss_latency::.cpu.inst 79492.561983                       # average overall miss latency
system.l2.demand_avg_miss_latency::.cpu.data 77093.125000                       # average overall miss latency
system.l2.demand_avg_miss_latency::total 78126.334520                       # average overall miss latency
system.l2.overall_avg_miss_latency::.cpu.inst 79492.561983                       # average overall miss latency
system.l2.overall_avg_miss_latency::.cpu.data 77093.125000                       # average overall miss latency
system.l2.overall_avg_miss_latency::total 78126.334520                       # average overall miss latency
system.l2.blocked_cycles::no_mshrs                  0                       # number of cycles access was blocked
system.l2.blocked_cycles::no_targets                0                       # number of cycles access was blocked
system.l2.blocked::no_mshrs                         0                       # number of cycles access was blocked
system.l2.blocked::no_targets                       0                       # number of cycles access was blocked
system.l2.avg_blocked_cycles::no_mshrs            nan                       # average number of cycles each access was blocked
system.l2.avg_blocked_cycles::no_targets          nan                       # average number of cycles each access was blocked
system.l2.demand_mshr_misses::.cpu.inst           605                       # number of demand (read+write) MSHR misses
system.l2.demand_mshr_misses::.cpu.data           800                       # number of demand (read+write) MSHR misses
system.l2.demand_mshr_misses::total              1405                       # number of demand (read+write) MSHR misses
system.l2.overall_mshr_misses::.cpu.inst          605                       # number of overall MSHR misses
system.l2.overall_mshr_misses::.cpu.data          800                       # number of overall MSHR misses
system.l2.overall_mshr_misses::total             1405                       # number of overall MSHR misses
system.l2.demand_mshr_miss_latency::.cpu.inst     42042501                       # number of demand (read+write) MSHR miss cycles
system.l2.demand_mshr_miss_latency::.cpu.data     53674001                       # number of demand (read+write) MSHR miss cycles
system.l2.demand_mshr_miss_latency::total     95716502                       # number of demand (read+write) MSHR miss cycles
system.l2.overall_mshr_miss_latency::.cpu.inst     42042501                       # number of overall MSHR miss cycles
system.l2.overall_mshr_miss_latency::.cpu.data     53674001                       # number of overall MSHR miss cycles
system.l2.overall_mshr_miss_latency::total     95716502                       # number of overall MSHR miss cycles
system.l2.demand_mshr_miss_rate::.cpu.inst     0.998350                       # mshr miss rate for demand accesses
system.l2.demand_mshr_miss_rate::.cpu.data            1                       # mshr miss rate for demand accesses
system.l2.demand_mshr_miss_rate::total       0.999289                       # mshr miss rate for demand accesses
system.l2.overall_mshr_miss_rate::.cpu.inst     0.998350                       # mshr miss rate for overall accesses
system.l2.overall_mshr_miss_rate::.cpu.data            1                       # mshr miss rate for overall accesses
system.l2.overall_mshr_miss_rate::total      0.999289                       # mshr miss rate for overall accesses
system.l2.demand_avg_mshr_miss_latency::.cpu.inst 69491.737190                       # average overall mshr miss latency
system.l2.demand_avg_mshr_miss_latency::.cpu.data 67092.501250                       # average overall mshr miss latency
system.l2.demand_avg_mshr_miss_latency::total 68125.624199                       # average overall mshr miss latency
system.l2.overall_avg_mshr_miss_latency::.cpu.inst 69491.737190                       # average overall mshr miss latency
system.l2.overall_avg_mshr_miss_latency::.cpu.data 67092.501250                       # average overall mshr miss latency
system.l2.overall_avg_mshr_miss_latency::total 68125.624199                       # average overall mshr miss latency
system.l2.replacements                              0                       # number of replacements
system.l2.ReadExReq_misses::.cpu.data             698                       # number of ReadExReq misses
system.l2.ReadExReq_misses::total                 698                       # number of ReadExReq misses
system.l2.ReadExReq_miss_latency::.cpu.data     52872000                       # number of ReadExReq miss cycles
system.l2.ReadExReq_miss_latency::total      52872000                       # number of ReadExReq miss cycles
system.l2.ReadExReq_accesses::.cpu.data           698                       # number of ReadExReq accesses(hits+misses)
system.l2.ReadExReq_accesses::total               698                       # number of ReadExReq accesses(hits+misses)
system.l2.ReadExReq_miss_rate::.cpu.data            1                       # miss rate for ReadExReq accesses
system.l2.ReadExReq_miss_rate::total                1                       # miss rate for ReadExReq accesses
system.l2.ReadExReq_avg_miss_latency::.cpu.data 75747.851003                       # average ReadExReq miss latency
system.l2.ReadExReq_avg_miss_latency::total 75747.851003                       # average ReadExReq miss latency
system.l2.ReadExReq_mshr_misses::.cpu.data          698                       # number of ReadExReq MSHR misses
system.l2.ReadExReq_mshr_misses::total            698                       # number of ReadExReq MSHR misses
system.l2.ReadExReq_mshr_miss_latency::.cpu.data     45891501                       # number of ReadExReq MSHR miss cycles
system.l2.ReadExReq_mshr_miss_latency::total     45891501                       # number of ReadExReq MSHR miss cycles
system.l2.ReadExReq_mshr_miss_rate::.cpu.data            1                       # mshr miss rate for ReadExReq accesses
system.l2.ReadExReq_mshr_miss_rate::total            1                       # mshr miss rate for ReadExReq accesses
system.l2.ReadExReq_avg_mshr_miss_latency::.cpu.data 65747.136103                       # average ReadExReq mshr miss latency
system.l2.ReadExReq_avg_mshr_miss_latency::total 65747.136103                       # average ReadExReq mshr miss latency
system.l2.ReadCleanReq_hits::.cpu.inst              1                       # number of ReadCleanReq hits
system.l2.ReadCleanReq_hits::total                  1                       # number of ReadCleanReq hits
system.l2.ReadCleanReq_misses::.cpu.inst          605                       # number of ReadCleanReq misses
system.l2.ReadCleanReq_misses::total              605                       # number of ReadCleanReq misses
system.l2.ReadCleanReq_miss_latency::.cpu.inst     48093000                       # number of ReadCleanReq miss cycles
system.l2.ReadCleanReq_miss_latency::total     48093000                       # number of ReadCleanReq miss cycles
system.l2.ReadCleanReq_accesses::.cpu.inst          606                       # number of ReadCleanReq accesses(hits+misses)
system.l2.ReadCleanReq_accesses::total            606                       # number of ReadCleanReq accesses(hits+misses)
system.l2.ReadCleanReq_miss_rate::.cpu.inst     0.998350                       # miss rate for ReadCleanReq accesses
system.l2.ReadCleanReq_miss_rate::total      0.998350                       # miss rate for ReadCleanReq accesses
system.l2.ReadCleanReq_avg_miss_latency::.cpu.inst 79492.561983                       # average ReadCleanReq miss latency
system.l2.ReadCleanReq_avg_miss_latency::total 79492.561983                       # average ReadCleanReq miss latency
system.l2.ReadCleanReq_mshr_misses::.cpu.inst          605                       # number of ReadCleanReq MSHR misses
system.l2.ReadCleanReq_mshr_misses::total          605                       # number of ReadCleanReq MSHR misses
system.l2.ReadCleanReq_mshr_miss_latency::.cpu.inst     42042501                       # number of ReadCleanReq MSHR miss cycles
system.l2.ReadCleanReq_mshr_miss_latency::total     42042501                       # number of ReadCleanReq MSHR miss cycles
system.l2.ReadCleanReq_mshr_miss_rate::.cpu.inst     0.998350                       # mshr miss rate for ReadCleanReq accesses
system.l2.ReadCleanReq_mshr_miss_rate::total     0.998350                       # mshr miss rate for ReadCleanReq accesses
system.l2.ReadCleanReq_avg_mshr_miss_latency::.cpu.inst 69491.737190                       # average ReadCleanReq mshr miss latency
system.l2.ReadCleanReq_avg_mshr_miss_latency::total 69491.737190                       # average ReadCleanReq mshr miss latency
system.l2.ReadSharedReq_misses::.cpu.data          102                       # number of ReadSharedReq misses
system.l2.ReadSharedReq_misses::total             102                       # number of ReadSharedReq misses
system.l2.ReadSharedReq_miss_latency::.cpu.data      8802500                       # number of ReadSharedReq miss cycles
system.l2.ReadSharedReq_miss_latency::total      8802500                       # number of ReadSharedReq miss cycles
system.l2.ReadSharedReq_accesses::.cpu.data          102                       # number of ReadSharedReq accesses(hits+misses)
system.l2.ReadSharedReq_accesses::total           102                       # number of ReadSharedReq accesses(hits+misses)
system.l2.ReadSharedReq_miss_rate::.cpu.data            1                       # miss rate for ReadSharedReq accesses
system.l2.ReadSharedReq_miss_rate::total            1                       # miss rate for ReadSharedReq accesses
system.l2.ReadSharedReq_avg_miss_latency::.cpu.data 86299.019608                       # average ReadSharedReq miss latency
system.l2.ReadSharedReq_avg_miss_latency::total 86299.019608                       # average ReadSharedReq miss latency
system.l2.ReadSharedReq_mshr_misses::.cpu.data          102                       # number of ReadSharedReq MSHR misses
system.l2.ReadSharedReq_mshr_misses::total          102                       # number of ReadSharedReq MSHR misses
system.l2.ReadSharedReq_mshr_miss_latency::.cpu.data      7782500                       # number of ReadSharedReq MSHR miss cycles
system.l2.ReadSharedReq_mshr_miss_latency::total      7782500                       # number of ReadSharedReq MSHR miss cycles
[...]
system.cpu.icache.tags.age_task_id_blocks_1024::3            3                       # Occupied blocks per task id
system.cpu.icache.tags.age_task_id_blocks_1024::4          603                       # Occupied blocks per task id
system.cpu.icache.tags.occ_task_id_percent::1024     0.147949                       # Percentage of cache occupancy per task id
system.cpu.icache.tags.tag_accesses          12963290                       # Number of tag accesses
system.cpu.icache.tags.data_accesses         12963290                       # Number of data accesses
system.cpu.icache.tags.power_state.pwrStateResidencyTicks::UNDEFINED  11426272000                       # Cumulative time (in ticks) in various power states
system.cpu.dtb.walker.power_state.pwrStateResidencyTicks::UNDEFINED  11426272000                       # Cumulative time (in ticks) in various power states
system.cpu.dtb.stage2_mmu.stage2_tlb.walker.power_state.pwrStateResidencyTicks::UNDEFINED  11426272000                       # Cumulative time (in ticks) in various power states
system.cpu.itb.walker.power_state.pwrStateResidencyTicks::UNDEFINED  11426272000                       # Cumulative time (in ticks) in various power states
system.cpu.itb.stage2_mmu.stage2_tlb.walker.power_state.pwrStateResidencyTicks::UNDEFINED  11426272000                       # Cumulative time (in ticks) in various power states
system.cpu.dcache.demand_hits::.cpu.data     32393625                       # number of demand (read+write) hits
system.cpu.dcache.demand_hits::total         32393625                       # number of demand (read+write) hits
system.cpu.dcache.overall_hits::.cpu.data     32393648                       # number of overall hits
system.cpu.dcache.overall_hits::total        32393648                       # number of overall hits
system.cpu.dcache.demand_misses::.cpu.data         7941                       # number of demand (read+write) misses
system.cpu.dcache.demand_misses::total           7941                       # number of demand (read+write) misses
system.cpu.dcache.overall_misses::.cpu.data         7943                       # number of overall misses
system.cpu.dcache.overall_misses::total          7943                       # number of overall misses
system.cpu.dcache.demand_miss_latency::.cpu.data    528713484                       # number of demand (read+write) miss cycles
system.cpu.dcache.demand_miss_latency::total    528713484                       # number of demand (read+write) miss cycles
system.cpu.dcache.overall_miss_latency::.cpu.data    528713484                       # number of overall miss cycles
system.cpu.dcache.overall_miss_latency::total    528713484                       # number of overall miss cycles
system.cpu.dcache.demand_accesses::.cpu.data     32401566                       # number of demand (read+write) accesses
system.cpu.dcache.demand_accesses::total     32401566                       # number of demand (read+write) accesses
system.cpu.dcache.overall_accesses::.cpu.data     32401591                       # number of overall (read+write) accesses
system.cpu.dcache.overall_accesses::total     32401591                       # number of overall (read+write) accesses
system.cpu.dcache.demand_miss_rate::.cpu.data     0.000245                       # miss rate for demand accesses
system.cpu.dcache.demand_miss_rate::total     0.000245                       # miss rate for demand accesses
system.cpu.dcache.overall_miss_rate::.cpu.data     0.000245                       # miss rate for overall accesses
system.cpu.dcache.overall_miss_rate::total     0.000245                       # miss rate for overall accesses
system.cpu.dcache.demand_avg_miss_latency::.cpu.data 66580.214583                       # average overall miss latency
system.cpu.dcache.demand_avg_miss_latency::total 66580.214583                       # average overall miss latency
system.cpu.dcache.overall_avg_miss_latency::.cpu.data 66563.450082                       # average overall miss latency
system.cpu.dcache.overall_avg_miss_latency::total 66563.450082                       # average overall miss latency
system.cpu.dcache.blocked_cycles::no_mshrs        11834                       # number of cycles access was blocked
system.cpu.dcache.blocked_cycles::no_targets            0                       # number of cycles access was blocked
system.cpu.dcache.blocked::no_mshrs               616                       # number of cycles access was blocked
system.cpu.dcache.blocked::no_targets               0                       # number of cycles access was blocked
system.cpu.dcache.avg_blocked_cycles::no_mshrs    19.211039                       # average number of cycles each access was blocked
system.cpu.dcache.avg_blocked_cycles::no_targets          nan                       # average number of cycles each access was blocked
system.cpu.dcache.demand_mshr_hits::.cpu.data         6597                       # number of demand (read+write) MSHR hits
system.cpu.dcache.demand_mshr_hits::total         6597                       # number of demand (read+write) MSHR hits
system.cpu.dcache.overall_mshr_hits::.cpu.data         6597                       # number of overall MSHR hits
system.cpu.dcache.overall_mshr_hits::total         6597                       # number of overall MSHR hits
system.cpu.dcache.demand_mshr_misses::.cpu.data         1344                       # number of demand (read+write) MSHR misses
system.cpu.dcache.demand_mshr_misses::total         1344                       # number of demand (read+write) MSHR misses
system.cpu.dcache.overall_mshr_misses::.cpu.data         1346                       # number of overall MSHR misses
system.cpu.dcache.overall_mshr_misses::total         1346                       # number of overall MSHR misses
system.cpu.dcache.demand_mshr_miss_latency::.cpu.data     79638555                       # number of demand (read+write) MSHR miss cycles
system.cpu.dcache.demand_mshr_miss_latency::total     79638555                       # number of demand (read+write) MSHR miss cycles
system.cpu.dcache.overall_mshr_miss_latency::.cpu.data     79801055                       # number of overall MSHR miss cycles
system.cpu.dcache.overall_mshr_miss_latency::total     79801055                       # number of overall MSHR miss cycles
system.cpu.dcache.demand_mshr_miss_rate::.cpu.data     0.000041                       # mshr miss rate for demand accesses
system.cpu.dcache.demand_mshr_miss_rate::total     0.000041                       # mshr miss rate for demand accesses
system.cpu.dcache.overall_mshr_miss_rate::.cpu.data     0.000042                       # mshr miss rate for overall accesses
system.cpu.dcache.overall_mshr_miss_rate::total     0.000042                       # mshr miss rate for overall accesses
system.cpu.dcache.demand_avg_mshr_miss_latency::.cpu.data 59254.877232                       # average overall mshr miss latency
system.cpu.dcache.demand_avg_mshr_miss_latency::total 59254.877232                       # average overall mshr miss latency
system.cpu.dcache.overall_avg_mshr_miss_latency::.cpu.data 59287.559435                       # average overall mshr miss latency
system.cpu.dcache.overall_avg_mshr_miss_latency::total 59287.559435                       # average overall mshr miss latency
system.cpu.dcache.replacements                      0                       # number of replacements
system.cpu.dcache.ReadReq_hits::.cpu.data     26532715                       # number of ReadReq hits
system.cpu.dcache.ReadReq_hits::total        26532715                       # number of ReadReq hits
system.cpu.dcache.ReadReq_misses::.cpu.data          235                       # number of ReadReq misses
system.cpu.dcache.ReadReq_misses::total           235                       # number of ReadReq misses
system.cpu.dcache.ReadReq_miss_latency::.cpu.data     16875500                       # number of ReadReq miss cycles
system.cpu.dcache.ReadReq_miss_latency::total     16875500                       # number of ReadReq miss cycles
system.cpu.dcache.ReadReq_accesses::.cpu.data     26532950                       # number of ReadReq accesses(hits+misses)
system.cpu.dcache.ReadReq_accesses::total     26532950                       # number of ReadReq accesses(hits+misses)
system.cpu.dcache.ReadReq_miss_rate::.cpu.data     0.000009                       # miss rate for ReadReq accesses
system.cpu.dcache.ReadReq_miss_rate::total     0.000009                       # miss rate for ReadReq accesses
system.cpu.dcache.ReadReq_avg_miss_latency::.cpu.data 71810.638298                       # average ReadReq miss latency
system.cpu.dcache.ReadReq_avg_miss_latency::total 71810.638298                       # average ReadReq miss latency
system.cpu.dcache.ReadReq_mshr_hits::.cpu.data          135                       # number of ReadReq MSHR hits
system.cpu.dcache.ReadReq_mshr_hits::total          135                       # number of ReadReq MSHR hits
system.cpu.dcache.ReadReq_mshr_misses::.cpu.data          100                       # number of ReadReq MSHR misses
system.cpu.dcache.ReadReq_mshr_misses::total          100                       # number of ReadReq MSHR misses
system.cpu.dcache.ReadReq_mshr_miss_latency::.cpu.data      8795500                       # number of ReadReq MSHR miss cycles
system.cpu.dcache.ReadReq_mshr_miss_latency::total      8795500                       # number of ReadReq MSHR miss cycles
system.cpu.dcache.ReadReq_mshr_miss_rate::.cpu.data     0.000004                       # mshr miss rate for ReadReq accesses
system.cpu.dcache.ReadReq_mshr_miss_rate::total     0.000004                       # mshr miss rate for ReadReq accesses
system.cpu.dcache.ReadReq_avg_mshr_miss_latency::.cpu.data        87955                       # average ReadReq mshr miss latency
system.cpu.dcache.ReadReq_avg_mshr_miss_latency::total        87955                       # average ReadReq mshr miss latency
system.cpu.dcache.WriteReq_hits::.cpu.data      5860891                       # number of WriteReq hits
system.cpu.dcache.WriteReq_hits::total        5860891                       # number of WriteReq hits
system.cpu.dcache.WriteReq_misses::.cpu.data         7161                       # number of WriteReq misses
system.cpu.dcache.WriteReq_misses::total         7161                       # number of WriteReq misses
system.cpu.dcache.WriteReq_miss_latency::.cpu.data    494403925                       # number of WriteReq miss cycles
system.cpu.dcache.WriteReq_miss_latency::total    494403925                       # number of WriteReq miss cycles
system.cpu.dcache.WriteReq_accesses::.cpu.data      5868052                       # number of WriteReq accesses(hits+misses)
system.cpu.dcache.WriteReq_accesses::total      5868052                       # number of WriteReq accesses(hits+misses)
system.cpu.dcache.WriteReq_miss_rate::.cpu.data     0.001220                       # miss rate for WriteReq accesses
system.cpu.dcache.WriteReq_miss_rate::total     0.001220                       # miss rate for WriteReq accesses
system.cpu.dcache.WriteReq_avg_miss_latency::.cpu.data 69041.184890                       # average WriteReq miss latency
system.cpu.dcache.WriteReq_avg_miss_latency::total 69041.184890                       # average WriteReq miss latency
system.cpu.dcache.WriteReq_mshr_hits::.cpu.data         6462                       # number of WriteReq MSHR hits
system.cpu.dcache.WriteReq_mshr_hits::total         6462                       # number of WriteReq MSHR hits
system.cpu.dcache.WriteReq_mshr_misses::.cpu.data          699                       # number of WriteReq MSHR misses
system.cpu.dcache.WriteReq_mshr_misses::total          699                       # number of WriteReq MSHR misses
system.cpu.dcache.WriteReq_mshr_miss_latency::.cpu.data     53953996                       # number of WriteReq MSHR miss cycles
system.cpu.dcache.WriteReq_mshr_miss_latency::total     53953996                       # number of WriteReq MSHR miss cycles
system.cpu.dcache.WriteReq_mshr_miss_rate::.cpu.data     0.000119                       # mshr miss rate for WriteReq accesses
system.cpu.dcache.WriteReq_mshr_miss_rate::total     0.000119                       # mshr miss rate for WriteReq accesses
system.cpu.dcache.WriteReq_avg_mshr_miss_latency::.cpu.data 77187.404864                       # average WriteReq mshr miss latency
system.cpu.dcache.WriteReq_avg_mshr_miss_latency::total 77187.404864                       # average WriteReq mshr miss latency
system.cpu.dcache.SoftPFReq_hits::.cpu.data           23                       # number of SoftPFReq hits
system.cpu.dcache.SoftPFReq_hits::total            23                       # number of SoftPFReq hits
system.cpu.dcache.SoftPFReq_misses::.cpu.data            2                       # number of SoftPFReq misses
system.cpu.dcache.SoftPFReq_misses::total            2                       # number of SoftPFReq misses
system.cpu.dcache.SoftPFReq_accesses::.cpu.data           25                       # number of SoftPFReq accesses(hits+misses)
system.cpu.dcache.SoftPFReq_accesses::total           25                       # number of SoftPFReq accesses(hits+misses)
system.cpu.dcache.SoftPFReq_miss_rate::.cpu.data     0.080000                       # miss rate for SoftPFReq accesses
system.cpu.dcache.SoftPFReq_miss_rate::total     0.080000                       # miss rate for SoftPFReq accesses
system.cpu.dcache.SoftPFReq_mshr_misses::.cpu.data            2                       # number of SoftPFReq MSHR misses
system.cpu.dcache.SoftPFReq_mshr_misses::total            2                       # number of SoftPFReq MSHR misses
system.cpu.dcache.SoftPFReq_mshr_miss_latency::.cpu.data       162500                       # number of SoftPFReq MSHR miss cycles
system.cpu.dcache.SoftPFReq_mshr_miss_latency::total       162500                       # number of SoftPFReq MSHR miss cycles
system.cpu.dcache.SoftPFReq_mshr_miss_rate::.cpu.data     0.080000                       # mshr miss rate for SoftPFReq accesses
system.cpu.dcache.SoftPFReq_mshr_miss_rate::total     0.080000                       # mshr miss rate for SoftPFReq accesses
system.cpu.dcache.SoftPFReq_avg_mshr_miss_latency::.cpu.data        81250                       # average SoftPFReq mshr miss latency
system.cpu.dcache.SoftPFReq_avg_mshr_miss_latency::total        81250                       # average SoftPFReq mshr miss latency
system.cpu.dcache.WriteLineReq_hits::.cpu.data           19                       # number of WriteLineReq hits
system.cpu.dcache.WriteLineReq_hits::total           19                       # number of WriteLineReq hits
system.cpu.dcache.WriteLineReq_misses::.cpu.data          545                       # number of WriteLineReq misses
system.cpu.dcache.WriteLineReq_misses::total          545                       # number of WriteLineReq misses
system.cpu.dcache.WriteLineReq_miss_latency::.cpu.data     17434059                       # number of WriteLineReq miss cycles
system.cpu.dcache.WriteLineReq_miss_latency::total     17434059                       # number of WriteLineReq miss cycles
system.cpu.dcache.WriteLineReq_accesses::.cpu.data          564                       # number of WriteLineReq accesses(hits+misses)
system.cpu.dcache.WriteLineReq_accesses::total          564                       # number of WriteLineReq accesses(hits+misses)
system.cpu.dcache.WriteLineReq_miss_rate::.cpu.data     0.966312                       # miss rate for WriteLineReq accesses
system.cpu.dcache.WriteLineReq_miss_rate::total     0.966312                       # miss rate for WriteLineReq accesses
system.cpu.dcache.WriteLineReq_avg_miss_latency::.cpu.data 31989.099083                       # average WriteLineReq miss latency
system.cpu.dcache.WriteLineReq_avg_miss_latency::total 31989.099083                       # average WriteLineReq miss latency
system.cpu.dcache.WriteLineReq_mshr_misses::.cpu.data          545                       # number of WriteLineReq MSHR misses
system.cpu.dcache.WriteLineReq_mshr_misses::total          545                       # number of WriteLineReq MSHR misses
system.cpu.dcache.WriteLineReq_mshr_miss_latency::.cpu.data     16889059                       # number of WriteLineReq MSHR miss cycles
system.cpu.dcache.WriteLineReq_mshr_miss_latency::total     16889059                       # number of WriteLineReq MSHR miss cycles
system.cpu.dcache.WriteLineReq_mshr_miss_rate::.cpu.data     0.966312                       # mshr miss rate for WriteLineReq accesses
system.cpu.dcache.WriteLineReq_mshr_miss_rate::total     0.966312                       # mshr miss rate for WriteLineReq accesses
system.cpu.dcache.WriteLineReq_avg_mshr_miss_latency::.cpu.data 30989.099083                       # average WriteLineReq mshr miss latency
system.cpu.dcache.WriteLineReq_avg_mshr_miss_latency::total 30989.099083                       # average WriteLineReq mshr miss latency
system.cpu.dcache.LoadLockedReq_hits::.cpu.data           54                       # number of LoadLockedReq hits
system.cpu.dcache.LoadLockedReq_hits::total           54                       # number of LoadLockedReq hits
system.cpu.dcache.LoadLockedReq_accesses::.cpu.data           54                       # number of LoadLockedReq accesses(hits+misses)
system.cpu.dcache.LoadLockedReq_accesses::total           54                       # number of LoadLockedReq accesses(hits+misses)
system.cpu.dcache.StoreCondReq_hits::.cpu.data           48                       # number of StoreCondReq hits
system.cpu.dcache.StoreCondReq_hits::total           48                       # number of StoreCondReq hits
system.cpu.dcache.StoreCondReq_accesses::.cpu.data           48                       # number of StoreCondReq accesses(hits+misses)
system.cpu.dcache.StoreCondReq_accesses::total           48                       # number of StoreCondReq accesses(hits+misses)
system.cpu.dcache.power_state.pwrStateResidencyTicks::UNDEFINED  11426272000                       # Cumulative time (in ticks) in various power states
system.cpu.dcache.tags.tagsinuse          1338.684227                       # Cycle average of tags in use
system.cpu.dcache.tags.total_refs            32395096                       # Total number of references to valid blocks.
system.cpu.dcache.tags.sampled_refs              1346                       # Sample count of references to valid blocks.
system.cpu.dcache.tags.avg_refs          24067.679049                       # Average number of references to valid blocks.
system.cpu.dcache.tags.warmup_cycle            176500                       # Cycle when the warmup percentage was hit.
system.cpu.dcache.tags.occ_blocks::.cpu.data  1338.684227                       # Average occupied blocks per requestor
system.cpu.dcache.tags.occ_percent::.cpu.data     0.326827                       # Average percentage of cache occupancy
system.cpu.dcache.tags.occ_percent::total     0.326827                       # Average percentage of cache occupancy
system.cpu.dcache.tags.occ_task_id_blocks::1024         1346                       # Occupied blocks per task id
system.cpu.dcache.tags.age_task_id_blocks_1024::4         1346                       # Occupied blocks per task id
system.cpu.dcache.tags.occ_task_id_percent::1024     0.328613                       # Percentage of cache occupancy per task id
system.cpu.dcache.tags.tag_accesses         259214890                       # Number of tag accesses
system.cpu.dcache.tags.data_accesses        259214890                       # Number of data accesses
system.cpu.dcache.tags.power_state.pwrStateResidencyTicks::UNDEFINED  11426272000                       # Cumulative time (in ticks) in various power states
system.cpu.power_state.pwrStateResidencyTicks::ON  11426272000                       # Cumulative time (in ticks) in various power states

---------- End Simulation Statistics   ----------
